*Heading
** Job name: Job-1 Model name: Model-1
** Generated by: Abaqus/CAE 6.13-1
*Preprint, echo=NO, model=NO, history=NO, contact=NO
**
** PARTS
**
*Part, name=Part-1
*Node
      1,          50.,          50.
      2,          49.,          50.
      3,          48.,          50.
      4,          47.,          50.
      5,          46.,          50.
      6,          45.,          50.
      7,          44.,          50.
      8,          43.,          50.
      9,          42.,          50.
     10,          41.,          50.
     11,          40.,          50.
     12,          39.,          50.
     13,          38.,          50.
     14,          37.,          50.
     15,          36.,          50.
     16,          35.,          50.
     17,          34.,          50.
     18,          33.,          50.
     19,          32.,          50.
     20,          31.,          50.
** ... 10181 like lines cut
*Element, type=CPS4R
    1,     1,     2,   103,   102
    2,     2,     3,   104,   103
    3,     3,     4,   105,   104
    4,     4,     5,   106,   105
    5,     5,     6,   107,   106
    6,     6,     7,   108,   107
    7,     7,     8,   109,   108
    8,     8,     9,   110,   109
    9,     9,    10,   111,   110
   10,    10,    11,   112,   111
   11,    11,    12,   113,   112
   12,    12,    13,   114,   113
   13,    13,    14,   115,   114
   14,    14,    15,   116,   115
   15,    15,    16,   117,   116
   16,    16,    17,   118,   117
   17,    17,    18,   119,   118
   18,    18,    19,   120,   119
   19,    19,    20,   121,   120
   20,    20,    21,   122,   121
** ... 9980 like lines cut
*Nset, nset=Set-1, generate
     1,  10201,      1
*Elset, elset=Set-1, generate
     1,  10000,      1
** Section: Section-1
*Solid Section, elset=Set-1, material=Material-1
,
*End Part
**  
**
** ASSEMBLY
**
*Assembly, name=Assembly
**  
*Instance, name=Part-1-1, part=Part-1
*End Instance
**  
*Nset, nset=Set-1, instance=Part-1-1, generate
   101,  10201,    101
*Elset, elset=Set-1, instance=Part-1-1, generate
   100,  10000,    100
*Nset, nset=Set-2, instance=Part-1-1, generate
     1,  10101,    101
*Elset, elset=Set-2, instance=Part-1-1, generate
    1,  9901,   100
*End Assembly
** 
** MATERIALS
** 
*Material, name=Material-1
*Elastic
27000., 0.3
** ----------------------------------------------------------------
** 
** STEP: Step-1
** 
*Step, name=Step-1, nlgeom=NO
*Static
1., 1., 1e-05, 1.
** 
** BOUNDARY CONDITIONS
** 
** Name: BC-1 Type: Displacement/Rotation
*Boundary
Set-1, 1, 1
** Name: BC-2 Type: Displacement/Rotation
*Boundary
Set-2, 1, 1, 5.
** 
** OUTPUT REQUESTS
** 
*Restart, write, frequency=0
** 
** FIELD OUTPUT: F-Output-1
** 
*Output, field, variable=PRESELECT
** 
** HISTORY OUTPUT: H-Output-1
** 
*Output, history, variable=PRESELECT
*End Step
