 Abaqus/Standard 6.13-1                  DATE 08-3ÔÂ-2016 TIME 11:29:31
 SUMMARY OF JOB INFORMATION:
 STEP  INC ATT SEVERE EQUIL TOTAL  TOTAL      STEP       INC OF       DOF    IF
               DISCON ITERS ITERS  TIME/    TIME/LPF    TIME/LPF    MONITOR RIKS
               ITERS               FREQ
   1     1   1     0     2     2  0.0100     0.0100     0.01000   
   1     2   1     0     1     1  0.0200     0.0200     0.01000   
   1     3   1     0     1     1  0.0350     0.0350     0.01500   
   1     4   1     0     1     1  0.0575     0.0575     0.02250   
   1     5   1     0     1     1  0.0912     0.0912     0.03375   
   1     6   1U    0     2     2  0.0912     0.0912     0.05063   
   1     6   2U    0     3     3  0.0912     0.0912     0.01266   
   1     6   3U    0     2     2  0.0912     0.0912     0.003164  
   1     6   4U    0     6     6  0.0912     0.0912     0.0007910 
   1     6   5U    0     3     3  0.0912     0.0912     0.0001978 
                          
 THE ANALYSIS HAS NOT BEEN COMPLETED
