1

   Abaqus 6.13-1                                  Date 08-3ÔÂ-2016   Time 11:29:03
   For use at  under license from Dassault Systemes or its subsidiary.

                                                                                 
                                                                                 
 STEP    1     INCREMENT     1     STEP TIME    0.00    


                        S T E P       1     S T A T I C   A N A L Y S I S


                                                                                          

     AUTOMATIC TIME CONTROL WITH -
          A SUGGESTED INITIAL TIME INCREMENT OF                1.000E-02
          AND A TOTAL TIME PERIOD OF                            1.00    
          THE MINIMUM TIME INCREMENT ALLOWED IS                1.000E-05
          THE MAXIMUM TIME INCREMENT ALLOWED IS                 1.00    

     LINEAR EQUATION SOLVER TYPE         DIRECT SPARSE

 CONVERGENCE TOLERANCE PARAMETERS FOR FORCE    
     CRITERION FOR RESIDUAL FORCE     FOR A NONLINEAR PROBLEM          5.000E-03
     CRITERION FOR DISP.    CORRECTION IN A NONLINEAR PROBLEM          1.000E-02
     INITIAL VALUE OF TIME AVERAGE FORCE                               1.000E-02
     AVERAGE FORCE     IS TIME AVERAGE FORCE    
     ALTERNATE CRIT. FOR RESIDUAL FORCE     FOR A NONLINEAR PROBLEM    2.000E-02
     CRITERION FOR ZERO FORCE     RELATIVE TO TIME AVRG. FORCE         1.000E-05
     CRITERION FOR RESIDUAL FORCE     WHEN THERE IS ZERO FLUX          1.000E-05
     CRITERION FOR DISP.    CORRECTION WHEN THERE IS ZERO FLUX         1.000E-03
     CRITERION FOR RESIDUAL FORCE     FOR A LINEAR INCREMENT           1.000E-08
     FIELD CONVERSION RATIO                                             1.00    
     CRITERION FOR ZERO FORCE     REL. TO TIME AVRG. MAX. FORCE        1.000E-05
     CRITERION FOR ZERO DISP.    RELATIVE TO CHARACTERISTIC LENGTH     1.000E-08

     VOLUMETRIC STRAIN COMPATIBILITY TOLERANCE FOR HYBRID SOLIDS       1.000E-05
     AXIAL STRAIN COMPATIBILITY TOLERANCE FOR HYBRID BEAMS             1.000E-05
     TRANS. SHEAR STRAIN COMPATIBILITY TOLERANCE FOR HYBRID BEAMS      1.000E-05
     SOFT CONTACT CONSTRAINT COMPATIBILITY TOLERANCE FOR P>P0          5.000E-03
     SOFT CONTACT CONSTRAINT COMPATIBILITY TOLERANCE FOR P=0.0         0.100    
     CONTACT FORCE ERROR TOLERANCE FOR CONVERT SDI=YES                 1.00    
     DISPLACEMENT COMPATIBILITY TOLERANCE FOR DCOUP ELEMENTS           1.000E-05
     ROTATION COMPATIBILITY TOLERANCE FOR DCOUP ELEMENTS               1.000E-05

 EQUILIBRIUM WILL BE CHECKED FOR SEVERE DISCONTINUITY ITERATIONS

 TIME INCREMENTATION CONTROL PARAMETERS:
     FIRST EQUILIBRIUM ITERATION FOR CONSECUTIVE DIVERGENCE CHECK              4
     EQUILIBRIUM ITERATION AT WHICH LOG. CONVERGENCE RATE CHECK BEGINS         8
     EQUILIBRIUM ITERATION AFTER WHICH ALTERNATE RESIDUAL IS USED              9
     MAXIMUM EQUILIBRIUM ITERATIONS ALLOWED                                   16
     EQUILIBRIUM ITERATION COUNT FOR CUT-BACK IN NEXT INCREMENT               10
     MAXIMUM EQUILIB. ITERS IN TWO INCREMENTS FOR TIME INCREMENT INCREASE      4
     MAXIMUM ITERATIONS FOR SEVERE DISCONTINUITIES                            50
     MAXIMUM CUT-BACKS ALLOWED IN AN INCREMENT                                 5
     MAXIMUM DISCON. ITERS IN TWO INCREMENTS FOR TIME INCREMENT INCREASE      50
     MAXIMUM CONTACT AUGMENTATIONS FOR *SURFACE BEHAVIOR,AUGMENTED LAGRANGE   50
     CUT-BACK FACTOR AFTER DIVERGENCE                                 0.2500    
     CUT-BACK FACTOR FOR TOO SLOW CONVERGENCE                         0.5000    
     CUT-BACK FACTOR AFTER TOO MANY EQUILIBRIUM ITERATIONS            0.7500    
     CUT-BACK FACTOR AFTER TOO MANY SEVERE DISCONTINUITY ITERATIONS   0.2500    
     CUT-BACK FACTOR AFTER PROBLEMS IN ELEMENT ASSEMBLY               0.2500    
     INCREASE FACTOR AFTER TWO INCREMENTS THAT CONVERGE QUICKLY        1.500    
     MAX. TIME INCREMENT INCREASE FACTOR ALLOWED                       1.500    
     MAX. TIME INCREMENT INCREASE FACTOR ALLOWED (DYNAMICS)            1.250    
     MAX. TIME INCREMENT INCREASE FACTOR ALLOWED (DIFFUSION)           2.000    
     MINIMUM TIME INCREMENT RATIO FOR EXTRAPOLATION TO OCCUR          0.1000    
     MAX. RATIO OF TIME INCREMENT TO STABILITY LIMIT                   1.000    
     FRACTION OF STABILITY LIMIT FOR NEW TIME INCREMENT               0.9500    
     TIME INCREMENT INCREASE FACTOR BEFORE A TIME POINT                1.000    
     GLOBAL STABILIZATION CONTROL IS NOT USED

          PRINT OF INCREMENT NUMBER, TIME, ETC., EVERY    1  INCREMENTS

     THE MAXIMUM NUMBER OF INCREMENTS IN THIS STEP IS                     100

          LARGE DISPLACEMENT THEORY WILL BE USED

     LINEAR EXTRAPOLATION WILL BE USED

     CHARACTERISTIC ELEMENT LENGTH      1.91    

     DETAILS REGARDING ACTUAL SOLUTION WAVEFRONT REQUESTED

     DETAILED OUTPUT OF DIAGNOSTICS TO DATABASE REQUESTED

     PRINT OF INCREMENT NUMBER, TIME, ETC., TO THE MESSAGE FILE EVERY     1  INCREMENTS

     EQUATIONS ARE BEING REORDERED TO MINIMIZE WAVEFRONT

     COLLECTING MODEL CONSTRAINT INFORMATION FOR OVERCONSTRAINT CHECKS

     COLLECTING STEP CONSTRAINT INFORMATION FOR OVERCONSTRAINT CHECKS


  INCREMENT     1 STARTS. ATTEMPT NUMBER  1, TIME INCREMENT  1.000E-02

  NUMBER OF EQUATIONS =    78771     NUMBER OF FLOATING PT. OPERATIONS =  1.43E+11

     CHECK POINT   START OF SOLVER    

     CHECK POINT  END OF SOLVER       

       ELAPSED USER TIME (SEC)      =   11.000    
       ELAPSED SYSTEM TIME (SEC)    =  0.50000    
       ELAPSED TOTAL CPU TIME (SEC) =   11.500    
       ELAPSED WALLCLOCK TIME (SEC) =         12

               CONVERGENCE CHECKS FOR EQUILIBRIUM ITERATION     1


 AVERAGE FORCE                      4.728E-05   TIME AVG. FORCE       4.728E-05
 LARGEST RESIDUAL FORCE             1.111E-05   AT NODE       8000   DOF  1
   INSTANCE: BONE_MESH-1                                                                     
 LARGEST INCREMENT OF DISP.         0.200       AT NODE        104   DOF  3
   INSTANCE: BONE_MESH-1                                                                     
 LARGEST CORRECTION TO DISP.        0.200       AT NODE        104   DOF  3
   INSTANCE: BONE_MESH-1                                                                     
          FORCE     EQUILIBRIUM NOT ACHIEVED WITHIN TOLERANCE.

  NUMBER OF EQUATIONS =    78771     NUMBER OF FLOATING PT. OPERATIONS =  1.43E+11

     CHECK POINT   START OF SOLVER    

     CHECK POINT  END OF SOLVER       

       ELAPSED USER TIME (SEC)      =   10.700    
       ELAPSED SYSTEM TIME (SEC)    =   0.0000    
       ELAPSED TOTAL CPU TIME (SEC) =   10.700    
       ELAPSED WALLCLOCK TIME (SEC) =         11
 

 ***WARNING: THE SYSTEM MATRIX HAS 2 NEGATIVE EIGENVALUES.

     NEGATIVE EIGENVALUES MEAN THAT THE SYSTEM MATRIX IS NOT 
     POSITIVE DEFINITE:
     FOR EXAMPLE, A BIFURCATION (BUCKLING) LOAD MAY HAVE BEEN EXCEEDED.

               CONVERGENCE CHECKS FOR EQUILIBRIUM ITERATION     2


 AVERAGE FORCE                      4.755E-05   TIME AVG. FORCE       4.755E-05
 LARGEST RESIDUAL FORCE            -2.131E-08   AT NODE      20119   DOF  2
   INSTANCE: BONE_MESH-1                                                                     
 LARGEST INCREMENT OF DISP.         0.200       AT NODE        104   DOF  3
   INSTANCE: BONE_MESH-1                                                                     
 LARGEST CORRECTION TO DISP.       -3.206E-03   AT NODE       9368   DOF  2
   INSTANCE: BONE_MESH-1                                                                     
 ESTIMATE OF DISP.    CORRECTION    6.150E-06
 FORCE     EQUILIB. ACCEPTED BASED ON SMALL RESIDUAL AND ESTIMATED CORRECTION

 ITERATION SUMMARY FOR THE INCREMENT:   2 TOTAL ITERATIONS, OF WHICH
   0 ARE SEVERE DISCONTINUITY ITERATIONS AND  2 ARE EQUILIBRIUM ITERATIONS.

 TIME INCREMENT COMPLETED  1.000E-02,  FRACTION OF STEP COMPLETED  1.000E-02
 STEP TIME COMPLETED       1.000E-02,  TOTAL TIME COMPLETED        1.000E-02


  INCREMENT     2 STARTS. ATTEMPT NUMBER  1, TIME INCREMENT  1.000E-02

  NUMBER OF EQUATIONS =    78771     NUMBER OF FLOATING PT. OPERATIONS =  1.43E+11

     CHECK POINT   START OF SOLVER    

     CHECK POINT  END OF SOLVER       

       ELAPSED USER TIME (SEC)      =   10.500    
       ELAPSED SYSTEM TIME (SEC)    =   0.0000    
       ELAPSED TOTAL CPU TIME (SEC) =   10.500    
       ELAPSED WALLCLOCK TIME (SEC) =         11
 

 ***WARNING: THE SYSTEM MATRIX HAS 2 NEGATIVE EIGENVALUES.
             EXPLANATIONS ARE SUGGESTED AFTER THE FIRST OCCURRENCE OF THIS MESSAGE.

               CONVERGENCE CHECKS FOR EQUILIBRIUM ITERATION     1


 AVERAGE FORCE                      9.433E-05   TIME AVG. FORCE       7.094E-05
 LARGEST RESIDUAL FORCE             1.130E-08   AT NODE       7549   DOF  2
   INSTANCE: BONE_MESH-1                                                                     
 LARGEST INCREMENT OF DISP.         0.200       AT NODE        104   DOF  3
   INSTANCE: BONE_MESH-1                                                                     
 LARGEST CORRECTION TO DISP.       -1.336E-03   AT NODE      23142   DOF  1
   INSTANCE: BONE_MESH-1                                                                     
          THE FORCE     EQUILIBRIUM EQUATIONS HAVE CONVERGED
          TIME INCREMENT MAY NOW INCREASE TO    1.500E-02

 ITERATION SUMMARY FOR THE INCREMENT:   1 TOTAL ITERATIONS, OF WHICH
   0 ARE SEVERE DISCONTINUITY ITERATIONS AND  1 ARE EQUILIBRIUM ITERATIONS.

 TIME INCREMENT COMPLETED  1.000E-02,  FRACTION OF STEP COMPLETED  2.000E-02
 STEP TIME COMPLETED       2.000E-02,  TOTAL TIME COMPLETED        2.000E-02


  INCREMENT     3 STARTS. ATTEMPT NUMBER  1, TIME INCREMENT  1.500E-02

  NUMBER OF EQUATIONS =    78771     NUMBER OF FLOATING PT. OPERATIONS =  1.43E+11

     CHECK POINT   START OF SOLVER    

     CHECK POINT  END OF SOLVER       

       ELAPSED USER TIME (SEC)      =   10.500    
       ELAPSED SYSTEM TIME (SEC)    =   0.0000    
       ELAPSED TOTAL CPU TIME (SEC) =   10.500    
       ELAPSED WALLCLOCK TIME (SEC) =         11
 

 ***WARNING: THE SYSTEM MATRIX HAS 81 NEGATIVE EIGENVALUES.
             EXPLANATIONS ARE SUGGESTED AFTER THE FIRST OCCURRENCE OF THIS MESSAGE.

               CONVERGENCE CHECKS FOR EQUILIBRIUM ITERATION     1


 AVERAGE FORCE                      1.631E-04   TIME AVG. FORCE       1.016E-04
 LARGEST RESIDUAL FORCE             3.657E-08   AT NODE       1247   DOF  1
   INSTANCE: BONE_MESH-1                                                                     
 LARGEST INCREMENT OF DISP.         0.300       AT NODE        104   DOF  3
   INSTANCE: BONE_MESH-1                                                                     
 LARGEST CORRECTION TO DISP.       -2.816E-03   AT NODE      21029   DOF  2
   INSTANCE: BONE_MESH-1                                                                     
          THE FORCE     EQUILIBRIUM EQUATIONS HAVE CONVERGED
          TIME INCREMENT MAY NOW INCREASE TO    2.250E-02

 ITERATION SUMMARY FOR THE INCREMENT:   1 TOTAL ITERATIONS, OF WHICH
   0 ARE SEVERE DISCONTINUITY ITERATIONS AND  1 ARE EQUILIBRIUM ITERATIONS.

 TIME INCREMENT COMPLETED  1.500E-02,  FRACTION OF STEP COMPLETED  3.500E-02
 STEP TIME COMPLETED       3.500E-02,  TOTAL TIME COMPLETED        3.500E-02


  INCREMENT     4 STARTS. ATTEMPT NUMBER  1, TIME INCREMENT  2.250E-02

  NUMBER OF EQUATIONS =    78771     NUMBER OF FLOATING PT. OPERATIONS =  1.43E+11

     CHECK POINT   START OF SOLVER    

     CHECK POINT  END OF SOLVER       

       ELAPSED USER TIME (SEC)      =   11.500    
       ELAPSED SYSTEM TIME (SEC)    =  0.10000    
       ELAPSED TOTAL CPU TIME (SEC) =   11.600    
       ELAPSED WALLCLOCK TIME (SEC) =         12
 

 ***WARNING: THE SYSTEM MATRIX HAS 173 NEGATIVE EIGENVALUES.
             EXPLANATIONS ARE SUGGESTED AFTER THE FIRST OCCURRENCE OF THIS MESSAGE.

               CONVERGENCE CHECKS FOR EQUILIBRIUM ITERATION     1


 AVERAGE FORCE                      2.631E-04   TIME AVG. FORCE       1.420E-04
 LARGEST RESIDUAL FORCE             1.367E-07   AT NODE       2226   DOF  2
   INSTANCE: BONE_MESH-1                                                                     
 LARGEST INCREMENT OF DISP.         0.450       AT NODE        104   DOF  3
   INSTANCE: BONE_MESH-1                                                                     
 LARGEST CORRECTION TO DISP.        6.052E-03   AT NODE       8540   DOF  2
   INSTANCE: BONE_MESH-1                                                                     
 ESTIMATE OF DISP.    CORRECTION    9.092E-06
 FORCE     EQUILIB. ACCEPTED BASED ON SMALL RESIDUAL AND ESTIMATED CORRECTION
          TIME INCREMENT MAY NOW INCREASE TO    3.375E-02

 ITERATION SUMMARY FOR THE INCREMENT:   1 TOTAL ITERATIONS, OF WHICH
   0 ARE SEVERE DISCONTINUITY ITERATIONS AND  1 ARE EQUILIBRIUM ITERATIONS.

 TIME INCREMENT COMPLETED  2.250E-02,  FRACTION OF STEP COMPLETED  5.750E-02
 STEP TIME COMPLETED       5.750E-02,  TOTAL TIME COMPLETED        5.750E-02


  INCREMENT     5 STARTS. ATTEMPT NUMBER  1, TIME INCREMENT  3.375E-02

  NUMBER OF EQUATIONS =    78771     NUMBER OF FLOATING PT. OPERATIONS =  1.43E+11

     CHECK POINT   START OF SOLVER    

     CHECK POINT  END OF SOLVER       

       ELAPSED USER TIME (SEC)      =   11.100    
       ELAPSED SYSTEM TIME (SEC)    =   0.0000    
       ELAPSED TOTAL CPU TIME (SEC) =   11.100    
       ELAPSED WALLCLOCK TIME (SEC) =         11
 

 ***WARNING: THE SYSTEM MATRIX HAS 293 NEGATIVE EIGENVALUES.
             EXPLANATIONS ARE SUGGESTED AFTER THE FIRST OCCURRENCE OF THIS MESSAGE.

               CONVERGENCE CHECKS FOR EQUILIBRIUM ITERATION     1


 AVERAGE FORCE                      4.068E-04   TIME AVG. FORCE       1.950E-04
 LARGEST RESIDUAL FORCE             4.836E-07   AT NODE       1247   DOF  1
   INSTANCE: BONE_MESH-1                                                                     
 LARGEST INCREMENT OF DISP.         0.675       AT NODE        104   DOF  3
   INSTANCE: BONE_MESH-1                                                                     
 LARGEST CORRECTION TO DISP.       -1.555E-02   AT NODE       9269   DOF  2
   INSTANCE: BONE_MESH-1                                                                     
 ESTIMATE OF DISP.    CORRECTION   -3.740E-05
 FORCE     EQUILIB. ACCEPTED BASED ON SMALL RESIDUAL AND ESTIMATED CORRECTION
          TIME INCREMENT MAY NOW INCREASE TO    5.063E-02

 ITERATION SUMMARY FOR THE INCREMENT:   1 TOTAL ITERATIONS, OF WHICH
   0 ARE SEVERE DISCONTINUITY ITERATIONS AND  1 ARE EQUILIBRIUM ITERATIONS.

 TIME INCREMENT COMPLETED  3.375E-02,  FRACTION OF STEP COMPLETED  9.125E-02
 STEP TIME COMPLETED       9.125E-02,  TOTAL TIME COMPLETED        9.125E-02


  INCREMENT     6 STARTS. ATTEMPT NUMBER  1, TIME INCREMENT  5.063E-02

  NUMBER OF EQUATIONS =    78771     NUMBER OF FLOATING PT. OPERATIONS =  1.43E+11

     CHECK POINT   START OF SOLVER    

     CHECK POINT  END OF SOLVER       

       ELAPSED USER TIME (SEC)      =   11.000    
       ELAPSED SYSTEM TIME (SEC)    =   0.0000    
       ELAPSED TOTAL CPU TIME (SEC) =   11.000    
       ELAPSED WALLCLOCK TIME (SEC) =         11
 

 ***WARNING: THE SYSTEM MATRIX HAS 722 NEGATIVE EIGENVALUES.
             EXPLANATIONS ARE SUGGESTED AFTER THE FIRST OCCURRENCE OF THIS MESSAGE.

               CONVERGENCE CHECKS FOR EQUILIBRIUM ITERATION     1


 AVERAGE FORCE                      6.084E-04   TIME AVG. FORCE       2.639E-04
 LARGEST RESIDUAL FORCE            -4.773E-04   AT NODE      24060   DOF  2
   INSTANCE: BONE_MESH-1                                                                     
 LARGEST INCREMENT OF DISP.         -1.21       AT NODE        308   DOF  2
   INSTANCE: BONE_MESH-1                                                                     
 LARGEST CORRECTION TO DISP.         1.12       AT NODE       6750   DOF  2
   INSTANCE: BONE_MESH-1                                                                     
          FORCE     EQUILIBRIUM NOT ACHIEVED WITHIN TOLERANCE.

  NUMBER OF EQUATIONS =    78771     NUMBER OF FLOATING PT. OPERATIONS =  1.43E+11

     CHECK POINT   START OF SOLVER    

     CHECK POINT  END OF SOLVER       

       ELAPSED USER TIME (SEC)      =   11.100    
       ELAPSED SYSTEM TIME (SEC)    =   0.0000    
       ELAPSED TOTAL CPU TIME (SEC) =   11.100    
       ELAPSED WALLCLOCK TIME (SEC) =         11
 

 ***WARNING: THE SYSTEM MATRIX HAS 932 NEGATIVE EIGENVALUES.
             EXPLANATIONS ARE SUGGESTED AFTER THE FIRST OCCURRENCE OF THIS MESSAGE.
   ELEMENT BONE_MESH-1.14534 IS DISTORTING EXCESSIVELY.
   ELEMENT BONE_MESH-1.14537 IS DISTORTING EXCESSIVELY.
   ELEMENT BONE_MESH-1.14538 IS DISTORTING EXCESSIVELY.
   ELEMENT BONE_MESH-1.14539 IS DISTORTING EXCESSIVELY.
   ELEMENT BONE_MESH-1.14540 IS DISTORTING EXCESSIVELY.
   ELEMENT BONE_MESH-1.14541 IS DISTORTING EXCESSIVELY.
   ELEMENT BONE_MESH-1.14542 IS DISTORTING EXCESSIVELY.
   ELEMENT BONE_MESH-1.14543 IS DISTORTING EXCESSIVELY.
   ELEMENT BONE_MESH-1.14547 IS DISTORTING EXCESSIVELY.
   ELEMENT BONE_MESH-1.14548 IS DISTORTING EXCESSIVELY.
   ELEMENT BONE_MESH-1.14549 IS DISTORTING EXCESSIVELY.
   ELEMENT BONE_MESH-1.14550 IS DISTORTING EXCESSIVELY.
   ELEMENT BONE_MESH-1.14551 IS DISTORTING EXCESSIVELY.
   ELEMENT BONE_MESH-1.14553 IS DISTORTING EXCESSIVELY.
   ELEMENT BONE_MESH-1.14554 IS DISTORTING EXCESSIVELY.
   ELEMENT BONE_MESH-1.14557 IS DISTORTING EXCESSIVELY.
   ELEMENT BONE_MESH-1.14558 IS DISTORTING EXCESSIVELY.
   ELEMENT BONE_MESH-1.14559 IS DISTORTING EXCESSIVELY.
   ELEMENT BONE_MESH-1.14560 IS DISTORTING EXCESSIVELY.
   ELEMENT BONE_MESH-1.14561 IS DISTORTING EXCESSIVELY.
   ELEMENT BONE_MESH-1.14565 IS DISTORTING EXCESSIVELY.
   ELEMENT BONE_MESH-1.14566 IS DISTORTING EXCESSIVELY.
   ELEMENT BONE_MESH-1.14567 IS DISTORTING EXCESSIVELY.
   ELEMENT BONE_MESH-1.14584 IS DISTORTING EXCESSIVELY.
   ELEMENT BONE_MESH-1.14585 IS DISTORTING EXCESSIVELY.
   ELEMENT BONE_MESH-1.14586 IS DISTORTING EXCESSIVELY.
   ELEMENT BONE_MESH-1.14587 IS DISTORTING EXCESSIVELY.
   ELEMENT BONE_MESH-1.14588 IS DISTORTING EXCESSIVELY.
   ELEMENT BONE_MESH-1.14595 IS DISTORTING EXCESSIVELY.
   ELEMENT BONE_MESH-1.14596 IS DISTORTING EXCESSIVELY.
   ELEMENT BONE_MESH-1.14599 IS DISTORTING EXCESSIVELY.
   ELEMENT BONE_MESH-1.14600 IS DISTORTING EXCESSIVELY.
   ELEMENT BONE_MESH-1.14601 IS DISTORTING EXCESSIVELY.
   ELEMENT BONE_MESH-1.14602 IS DISTORTING EXCESSIVELY.
   ELEMENT BONE_MESH-1.14603 IS DISTORTING EXCESSIVELY.
   ELEMENT BONE_MESH-1.14609 IS DISTORTING EXCESSIVELY.
   ELEMENT BONE_MESH-1.14612 IS DISTORTING EXCESSIVELY.
   ELEMENT BONE_MESH-1.14613 IS DISTORTING EXCESSIVELY.
   ELEMENT BONE_MESH-1.14615 IS DISTORTING EXCESSIVELY.
   ELEMENT BONE_MESH-1.14616 IS DISTORTING EXCESSIVELY.
   ELEMENT BONE_MESH-1.14617 IS DISTORTING EXCESSIVELY.
   ELEMENT BONE_MESH-1.14618 IS DISTORTING EXCESSIVELY.
   ELEMENT BONE_MESH-1.14620 IS DISTORTING EXCESSIVELY.
   ELEMENT BONE_MESH-1.14625 IS DISTORTING EXCESSIVELY.
   ELEMENT BONE_MESH-1.14629 IS DISTORTING EXCESSIVELY.
   ELEMENT BONE_MESH-1.14631 IS DISTORTING EXCESSIVELY.
   ELEMENT BONE_MESH-1.14632 IS DISTORTING EXCESSIVELY.
   ELEMENT BONE_MESH-1.14633 IS DISTORTING EXCESSIVELY.
   ELEMENT BONE_MESH-1.14646 IS DISTORTING EXCESSIVELY.
   ELEMENT BONE_MESH-1.14655 IS DISTORTING EXCESSIVELY.
   ELEMENT BONE_MESH-1.14660 IS DISTORTING EXCESSIVELY.
   ELEMENT BONE_MESH-1.14664 IS DISTORTING EXCESSIVELY.
   ELEMENT BONE_MESH-1.14668 IS DISTORTING EXCESSIVELY.
   ELEMENT BONE_MESH-1.14670 IS DISTORTING EXCESSIVELY.
   ELEMENT BONE_MESH-1.14671 IS DISTORTING EXCESSIVELY.
   ELEMENT BONE_MESH-1.14673 IS DISTORTING EXCESSIVELY.
   ELEMENT BONE_MESH-1.14674 IS DISTORTING EXCESSIVELY.
   ELEMENT BONE_MESH-1.14675 IS DISTORTING EXCESSIVELY.
   ELEMENT BONE_MESH-1.14676 IS DISTORTING EXCESSIVELY.
   ELEMENT BONE_MESH-1.14677 IS DISTORTING EXCESSIVELY.
   ELEMENT BONE_MESH-1.14678 IS DISTORTING EXCESSIVELY.
   ELEMENT BONE_MESH-1.14679 IS DISTORTING EXCESSIVELY.
   ELEMENT BONE_MESH-1.14680 IS DISTORTING EXCESSIVELY.
   ELEMENT BONE_MESH-1.14681 IS DISTORTING EXCESSIVELY.
   ELEMENT BONE_MESH-1.14684 IS DISTORTING EXCESSIVELY.
   ELEMENT BONE_MESH-1.14685 IS DISTORTING EXCESSIVELY.
   ELEMENT BONE_MESH-1.14688 IS DISTORTING EXCESSIVELY.
   ELEMENT BONE_MESH-1.14689 IS DISTORTING EXCESSIVELY.
   ELEMENT BONE_MESH-1.14690 IS DISTORTING EXCESSIVELY.
   ELEMENT BONE_MESH-1.14691 IS DISTORTING EXCESSIVELY.
   ELEMENT BONE_MESH-1.14692 IS DISTORTING EXCESSIVELY.
   ELEMENT BONE_MESH-1.14693 IS DISTORTING EXCESSIVELY.
   ELEMENT BONE_MESH-1.14694 IS DISTORTING EXCESSIVELY.
   ELEMENT BONE_MESH-1.14696 IS DISTORTING EXCESSIVELY.
   ELEMENT BONE_MESH-1.14697 IS DISTORTING EXCESSIVELY.
   ELEMENT BONE_MESH-1.14698 IS DISTORTING EXCESSIVELY.
   ELEMENT BONE_MESH-1.14700 IS DISTORTING EXCESSIVELY.
   ELEMENT BONE_MESH-1.14701 IS DISTORTING EXCESSIVELY.
   ELEMENT BONE_MESH-1.14702 IS DISTORTING EXCESSIVELY.
   ELEMENT BONE_MESH-1.14705 IS DISTORTING EXCESSIVELY.
   ELEMENT BONE_MESH-1.14706 IS DISTORTING EXCESSIVELY.
   ELEMENT BONE_MESH-1.14709 IS DISTORTING EXCESSIVELY.
   ELEMENT BONE_MESH-1.14710 IS DISTORTING EXCESSIVELY.
   ELEMENT BONE_MESH-1.14720 IS DISTORTING EXCESSIVELY.
   ELEMENT BONE_MESH-1.14721 IS DISTORTING EXCESSIVELY.
   ELEMENT BONE_MESH-1.14722 IS DISTORTING EXCESSIVELY.
   ELEMENT BONE_MESH-1.14724 IS DISTORTING EXCESSIVELY.
   ELEMENT BONE_MESH-1.14725 IS DISTORTING EXCESSIVELY.
   ELEMENT BONE_MESH-1.14731 IS DISTORTING EXCESSIVELY.
   ELEMENT BONE_MESH-1.14733 IS DISTORTING EXCESSIVELY.
   ELEMENT BONE_MESH-1.14734 IS DISTORTING EXCESSIVELY.
   ELEMENT BONE_MESH-1.14737 IS DISTORTING EXCESSIVELY.
   ELEMENT BONE_MESH-1.14738 IS DISTORTING EXCESSIVELY.
   ELEMENT BONE_MESH-1.14741 IS DISTORTING EXCESSIVELY.
   ELEMENT BONE_MESH-1.14746 IS DISTORTING EXCESSIVELY.
   ELEMENT BONE_MESH-1.14750 IS DISTORTING EXCESSIVELY.
   ELEMENT BONE_MESH-1.14752 IS DISTORTING EXCESSIVELY.
   ELEMENT BONE_MESH-1.14753 IS DISTORTING EXCESSIVELY.
   ELEMENT BONE_MESH-1.14754 IS DISTORTING EXCESSIVELY.
   ELEMENT BONE_MESH-1.14755 IS DISTORTING EXCESSIVELY.
   ELEMENT BONE_MESH-1.14756 IS DISTORTING EXCESSIVELY.
   ELEMENT BONE_MESH-1.14757 IS DISTORTING EXCESSIVELY.
   ELEMENT BONE_MESH-1.14758 IS DISTORTING EXCESSIVELY.
   ELEMENT BONE_MESH-1.14760 IS DISTORTING EXCESSIVELY.
   ELEMENT BONE_MESH-1.14761 IS DISTORTING EXCESSIVELY.
   ELEMENT BONE_MESH-1.14764 IS DISTORTING EXCESSIVELY.
   ELEMENT BONE_MESH-1.14766 IS DISTORTING EXCESSIVELY.
   ELEMENT BONE_MESH-1.14771 IS DISTORTING EXCESSIVELY.
   ELEMENT BONE_MESH-1.14777 IS DISTORTING EXCESSIVELY.
   ELEMENT BONE_MESH-1.14780 IS DISTORTING EXCESSIVELY.
   ELEMENT BONE_MESH-1.14785 IS DISTORTING EXCESSIVELY.
   ELEMENT BONE_MESH-1.14786 IS DISTORTING EXCESSIVELY.
   ELEMENT BONE_MESH-1.14787 IS DISTORTING EXCESSIVELY.
   ELEMENT BONE_MESH-1.14788 IS DISTORTING EXCESSIVELY.
   ELEMENT BONE_MESH-1.14790 IS DISTORTING EXCESSIVELY.
   ELEMENT BONE_MESH-1.14791 IS DISTORTING EXCESSIVELY.
   ELEMENT BONE_MESH-1.14793 IS DISTORTING EXCESSIVELY.
   ELEMENT BONE_MESH-1.14796 IS DISTORTING EXCESSIVELY.
   ELEMENT BONE_MESH-1.14800 IS DISTORTING EXCESSIVELY.
   ELEMENT BONE_MESH-1.14804 IS DISTORTING EXCESSIVELY.
   ELEMENT BONE_MESH-1.14805 IS DISTORTING EXCESSIVELY.
   ELEMENT BONE_MESH-1.14808 IS DISTORTING EXCESSIVELY.
   ELEMENT BONE_MESH-1.14809 IS DISTORTING EXCESSIVELY.
   ELEMENT BONE_MESH-1.14811 IS DISTORTING EXCESSIVELY.
   ELEMENT BONE_MESH-1.14812 IS DISTORTING EXCESSIVELY.
   ELEMENT BONE_MESH-1.14815 IS DISTORTING EXCESSIVELY.
   ELEMENT BONE_MESH-1.14820 IS DISTORTING EXCESSIVELY.
   ELEMENT BONE_MESH-1.14824 IS DISTORTING EXCESSIVELY.
   ELEMENT BONE_MESH-1.14828 IS DISTORTING EXCESSIVELY.
   ELEMENT BONE_MESH-1.14829 IS DISTORTING EXCESSIVELY.
   ELEMENT BONE_MESH-1.14835 IS DISTORTING EXCESSIVELY.
   ELEMENT BONE_MESH-1.14837 IS DISTORTING EXCESSIVELY.
   ELEMENT BONE_MESH-1.14838 IS DISTORTING EXCESSIVELY.
   ELEMENT BONE_MESH-1.14840 IS DISTORTING EXCESSIVELY.
   ELEMENT BONE_MESH-1.14841 IS DISTORTING EXCESSIVELY.
   ELEMENT BONE_MESH-1.14842 IS DISTORTING EXCESSIVELY.
   ELEMENT BONE_MESH-1.14843 IS DISTORTING EXCESSIVELY.
   ELEMENT BONE_MESH-1.14844 IS DISTORTING EXCESSIVELY.
   ELEMENT BONE_MESH-1.14845 IS DISTORTING EXCESSIVELY.
   ELEMENT BONE_MESH-1.14846 IS DISTORTING EXCESSIVELY.
   ELEMENT BONE_MESH-1.14847 IS DISTORTING EXCESSIVELY.
   ELEMENT BONE_MESH-1.14848 IS DISTORTING EXCESSIVELY.
   ELEMENT BONE_MESH-1.14851 IS DISTORTING EXCESSIVELY.
   ELEMENT BONE_MESH-1.14853 IS DISTORTING EXCESSIVELY.
   ELEMENT BONE_MESH-1.14854 IS DISTORTING EXCESSIVELY.
   ELEMENT BONE_MESH-1.14855 IS DISTORTING EXCESSIVELY.
   ELEMENT BONE_MESH-1.14859 IS DISTORTING EXCESSIVELY.
   ELEMENT BONE_MESH-1.14860 IS DISTORTING EXCESSIVELY.
   ELEMENT BONE_MESH-1.14866 IS DISTORTING EXCESSIVELY.
   ELEMENT BONE_MESH-1.14870 IS DISTORTING EXCESSIVELY.
   ELEMENT BONE_MESH-1.14877 IS DISTORTING EXCESSIVELY.
   ELEMENT BONE_MESH-1.14882 IS DISTORTING EXCESSIVELY.
   ELEMENT BONE_MESH-1.14883 IS DISTORTING EXCESSIVELY.
   ELEMENT BONE_MESH-1.14893 IS DISTORTING EXCESSIVELY.
   ELEMENT BONE_MESH-1.14894 IS DISTORTING EXCESSIVELY.
   ELEMENT BONE_MESH-1.14895 IS DISTORTING EXCESSIVELY.
   ELEMENT BONE_MESH-1.14900 IS DISTORTING EXCESSIVELY.
   ELEMENT BONE_MESH-1.14901 IS DISTORTING EXCESSIVELY.
   ELEMENT BONE_MESH-1.14904 IS DISTORTING EXCESSIVELY.
   ELEMENT BONE_MESH-1.14905 IS DISTORTING EXCESSIVELY.
   ELEMENT BONE_MESH-1.14908 IS DISTORTING EXCESSIVELY.
   ELEMENT BONE_MESH-1.14914 IS DISTORTING EXCESSIVELY.
   ELEMENT BONE_MESH-1.14916 IS DISTORTING EXCESSIVELY.
   ELEMENT BONE_MESH-1.14918 IS DISTORTING EXCESSIVELY.
   ELEMENT BONE_MESH-1.14921 IS DISTORTING EXCESSIVELY.
   ELEMENT BONE_MESH-1.14923 IS DISTORTING EXCESSIVELY.
   ELEMENT BONE_MESH-1.14925 IS DISTORTING EXCESSIVELY.
   ELEMENT BONE_MESH-1.14927 IS DISTORTING EXCESSIVELY.
   ELEMENT BONE_MESH-1.14929 IS DISTORTING EXCESSIVELY.
   ELEMENT BONE_MESH-1.14934 IS DISTORTING EXCESSIVELY.
   ELEMENT BONE_MESH-1.14935 IS DISTORTING EXCESSIVELY.
   ELEMENT BONE_MESH-1.14936 IS DISTORTING EXCESSIVELY.
   ELEMENT BONE_MESH-1.14937 IS DISTORTING EXCESSIVELY.
   ELEMENT BONE_MESH-1.14938 IS DISTORTING EXCESSIVELY.
   ELEMENT BONE_MESH-1.14939 IS DISTORTING EXCESSIVELY.
   ELEMENT BONE_MESH-1.14942 IS DISTORTING EXCESSIVELY.
   ELEMENT BONE_MESH-1.14943 IS DISTORTING EXCESSIVELY.
   ELEMENT BONE_MESH-1.14944 IS DISTORTING EXCESSIVELY.
   ELEMENT BONE_MESH-1.14945 IS DISTORTING EXCESSIVELY.
   ELEMENT BONE_MESH-1.14946 IS DISTORTING EXCESSIVELY.
   ELEMENT BONE_MESH-1.14947 IS DISTORTING EXCESSIVELY.
   ELEMENT BONE_MESH-1.14948 IS DISTORTING EXCESSIVELY.
   ELEMENT BONE_MESH-1.14949 IS DISTORTING EXCESSIVELY.
   ELEMENT BONE_MESH-1.14959 IS DISTORTING EXCESSIVELY.
   ELEMENT BONE_MESH-1.14961 IS DISTORTING EXCESSIVELY.
   ELEMENT BONE_MESH-1.14962 IS DISTORTING EXCESSIVELY.
   ELEMENT BONE_MESH-1.14963 IS DISTORTING EXCESSIVELY.
   ELEMENT BONE_MESH-1.14964 IS DISTORTING EXCESSIVELY.
   ELEMENT BONE_MESH-1.14965 IS DISTORTING EXCESSIVELY.
   ELEMENT BONE_MESH-1.14966 IS DISTORTING EXCESSIVELY.
   ELEMENT BONE_MESH-1.14967 IS DISTORTING EXCESSIVELY.
   ELEMENT BONE_MESH-1.14968 IS DISTORTING EXCESSIVELY.
   ELEMENT BONE_MESH-1.14969 IS DISTORTING EXCESSIVELY.
   ELEMENT BONE_MESH-1.14973 IS DISTORTING EXCESSIVELY.
   ELEMENT BONE_MESH-1.14974 IS DISTORTING EXCESSIVELY.
   ELEMENT BONE_MESH-1.14975 IS DISTORTING EXCESSIVELY.
   ELEMENT BONE_MESH-1.14980 IS DISTORTING EXCESSIVELY.
   ELEMENT BONE_MESH-1.14981 IS DISTORTING EXCESSIVELY.
   ELEMENT BONE_MESH-1.14984 IS DISTORTING EXCESSIVELY.
   ELEMENT BONE_MESH-1.14985 IS DISTORTING EXCESSIVELY.
   ELEMENT BONE_MESH-1.14986 IS DISTORTING EXCESSIVELY.
   ELEMENT BONE_MESH-1.14989 IS DISTORTING EXCESSIVELY.
   ELEMENT BONE_MESH-1.14990 IS DISTORTING EXCESSIVELY.
   ELEMENT BONE_MESH-1.14997 IS DISTORTING EXCESSIVELY.
   ELEMENT BONE_MESH-1.14998 IS DISTORTING EXCESSIVELY.
   ELEMENT BONE_MESH-1.14999 IS DISTORTING EXCESSIVELY.
   ELEMENT BONE_MESH-1.15000 IS DISTORTING EXCESSIVELY.
   ELEMENT BONE_MESH-1.15001 IS DISTORTING EXCESSIVELY.
   ELEMENT BONE_MESH-1.15002 IS DISTORTING EXCESSIVELY.
   ELEMENT BONE_MESH-1.15005 IS DISTORTING EXCESSIVELY.
   ELEMENT BONE_MESH-1.15007 IS DISTORTING EXCESSIVELY.
   ELEMENT BONE_MESH-1.15010 IS DISTORTING EXCESSIVELY.
   ELEMENT BONE_MESH-1.15011 IS DISTORTING EXCESSIVELY.
   ELEMENT BONE_MESH-1.15012 IS DISTORTING EXCESSIVELY.
   ELEMENT BONE_MESH-1.15015 IS DISTORTING EXCESSIVELY.
   ELEMENT BONE_MESH-1.15016 IS DISTORTING EXCESSIVELY.
   ELEMENT BONE_MESH-1.15017 IS DISTORTING EXCESSIVELY.
   ELEMENT BONE_MESH-1.15021 IS DISTORTING EXCESSIVELY.
   ELEMENT BONE_MESH-1.15022 IS DISTORTING EXCESSIVELY.
   ELEMENT BONE_MESH-1.15029 IS DISTORTING EXCESSIVELY.
   ELEMENT BONE_MESH-1.15034 IS DISTORTING EXCESSIVELY.
   ELEMENT BONE_MESH-1.15035 IS DISTORTING EXCESSIVELY.
   ELEMENT BONE_MESH-1.15040 IS DISTORTING EXCESSIVELY.
   ELEMENT BONE_MESH-1.15041 IS DISTORTING EXCESSIVELY.
   ELEMENT BONE_MESH-1.15042 IS DISTORTING EXCESSIVELY.
   ELEMENT BONE_MESH-1.15043 IS DISTORTING EXCESSIVELY.
   ELEMENT BONE_MESH-1.15045 IS DISTORTING EXCESSIVELY.
   ELEMENT BONE_MESH-1.15048 IS DISTORTING EXCESSIVELY.
   ELEMENT BONE_MESH-1.15049 IS DISTORTING EXCESSIVELY.
   ELEMENT BONE_MESH-1.15051 IS DISTORTING EXCESSIVELY.
   ELEMENT BONE_MESH-1.15052 IS DISTORTING EXCESSIVELY.
   ELEMENT BONE_MESH-1.15053 IS DISTORTING EXCESSIVELY.
   ELEMENT BONE_MESH-1.15055 IS DISTORTING EXCESSIVELY.
   ELEMENT BONE_MESH-1.15056 IS DISTORTING EXCESSIVELY.
   ELEMENT BONE_MESH-1.15057 IS DISTORTING EXCESSIVELY.
   ELEMENT BONE_MESH-1.15058 IS DISTORTING EXCESSIVELY.
   ELEMENT BONE_MESH-1.15061 IS DISTORTING EXCESSIVELY.
   ELEMENT BONE_MESH-1.15062 IS DISTORTING EXCESSIVELY.
   ELEMENT BONE_MESH-1.15063 IS DISTORTING EXCESSIVELY.
   ELEMENT BONE_MESH-1.15064 IS DISTORTING EXCESSIVELY.
   ELEMENT BONE_MESH-1.15065 IS DISTORTING EXCESSIVELY.
   ELEMENT BONE_MESH-1.15066 IS DISTORTING EXCESSIVELY.
   ELEMENT BONE_MESH-1.15067 IS DISTORTING EXCESSIVELY.
   ELEMENT BONE_MESH-1.15070 IS DISTORTING EXCESSIVELY.
   ELEMENT BONE_MESH-1.15072 IS DISTORTING EXCESSIVELY.
   ELEMENT BONE_MESH-1.15076 IS DISTORTING EXCESSIVELY.
   ELEMENT BONE_MESH-1.15077 IS DISTORTING EXCESSIVELY.
   ELEMENT BONE_MESH-1.15078 IS DISTORTING EXCESSIVELY.
   ELEMENT BONE_MESH-1.15079 IS DISTORTING EXCESSIVELY.
   ELEMENT BONE_MESH-1.15081 IS DISTORTING EXCESSIVELY.
   ELEMENT BONE_MESH-1.15082 IS DISTORTING EXCESSIVELY.
   ELEMENT BONE_MESH-1.15083 IS DISTORTING EXCESSIVELY.
   ELEMENT BONE_MESH-1.15085 IS DISTORTING EXCESSIVELY.
   ELEMENT BONE_MESH-1.15086 IS DISTORTING EXCESSIVELY.
   ELEMENT BONE_MESH-1.15087 IS DISTORTING EXCESSIVELY.
   ELEMENT BONE_MESH-1.15088 IS DISTORTING EXCESSIVELY.
   ELEMENT BONE_MESH-1.15090 IS DISTORTING EXCESSIVELY.
   ELEMENT BONE_MESH-1.15091 IS DISTORTING EXCESSIVELY.
   ELEMENT BONE_MESH-1.15094 IS DISTORTING EXCESSIVELY.
   ELEMENT BONE_MESH-1.15096 IS DISTORTING EXCESSIVELY.
   ELEMENT BONE_MESH-1.15100 IS DISTORTING EXCESSIVELY.
   ELEMENT BONE_MESH-1.15101 IS DISTORTING EXCESSIVELY.
   ELEMENT BONE_MESH-1.15102 IS DISTORTING EXCESSIVELY.
   ELEMENT BONE_MESH-1.15103 IS DISTORTING EXCESSIVELY.
   ELEMENT BONE_MESH-1.15104 IS DISTORTING EXCESSIVELY.
   ELEMENT BONE_MESH-1.15105 IS DISTORTING EXCESSIVELY.
   ELEMENT BONE_MESH-1.15106 IS DISTORTING EXCESSIVELY.
   ELEMENT BONE_MESH-1.15107 IS DISTORTING EXCESSIVELY.
   ELEMENT BONE_MESH-1.15111 IS DISTORTING EXCESSIVELY.
   ELEMENT BONE_MESH-1.15112 IS DISTORTING EXCESSIVELY.
   ELEMENT BONE_MESH-1.15120 IS DISTORTING EXCESSIVELY.
   ELEMENT BONE_MESH-1.15122 IS DISTORTING EXCESSIVELY.
   ELEMENT BONE_MESH-1.15123 IS DISTORTING EXCESSIVELY.
   ELEMENT BONE_MESH-1.15125 IS DISTORTING EXCESSIVELY.
   ELEMENT BONE_MESH-1.15127 IS DISTORTING EXCESSIVELY.
   ELEMENT BONE_MESH-1.15132 IS DISTORTING EXCESSIVELY.
   ELEMENT BONE_MESH-1.15133 IS DISTORTING EXCESSIVELY.
   ELEMENT BONE_MESH-1.15135 IS DISTORTING EXCESSIVELY.
   ELEMENT BONE_MESH-1.15136 IS DISTORTING EXCESSIVELY.
   ELEMENT BONE_MESH-1.15138 IS DISTORTING EXCESSIVELY.
   ELEMENT BONE_MESH-1.15140 IS DISTORTING EXCESSIVELY.
   ELEMENT BONE_MESH-1.15143 IS DISTORTING EXCESSIVELY.
   ELEMENT BONE_MESH-1.15144 IS DISTORTING EXCESSIVELY.
   ELEMENT BONE_MESH-1.15145 IS DISTORTING EXCESSIVELY.
   ELEMENT BONE_MESH-1.15146 IS DISTORTING EXCESSIVELY.
   ELEMENT BONE_MESH-1.15147 IS DISTORTING EXCESSIVELY.
   ELEMENT BONE_MESH-1.15150 IS DISTORTING EXCESSIVELY.
   ELEMENT BONE_MESH-1.15151 IS DISTORTING EXCESSIVELY.
   ELEMENT BONE_MESH-1.15152 IS DISTORTING EXCESSIVELY.
   ELEMENT BONE_MESH-1.15153 IS DISTORTING EXCESSIVELY.
   ELEMENT BONE_MESH-1.15154 IS DISTORTING EXCESSIVELY.
   ELEMENT BONE_MESH-1.15166 IS DISTORTING EXCESSIVELY.
   ELEMENT BONE_MESH-1.15175 IS DISTORTING EXCESSIVELY.
   ELEMENT BONE_MESH-1.15176 IS DISTORTING EXCESSIVELY.
   ELEMENT BONE_MESH-1.15178 IS DISTORTING EXCESSIVELY.
   ELEMENT BONE_MESH-1.15184 IS DISTORTING EXCESSIVELY.
   ELEMENT BONE_MESH-1.15186 IS DISTORTING EXCESSIVELY.
   ELEMENT BONE_MESH-1.15189 IS DISTORTING EXCESSIVELY.
   ELEMENT BONE_MESH-1.15190 IS DISTORTING EXCESSIVELY.
   ELEMENT BONE_MESH-1.15192 IS DISTORTING EXCESSIVELY.
   ELEMENT BONE_MESH-1.15194 IS DISTORTING EXCESSIVELY.
   ELEMENT BONE_MESH-1.15196 IS DISTORTING EXCESSIVELY.
   ELEMENT BONE_MESH-1.15198 IS DISTORTING EXCESSIVELY.
   ELEMENT BONE_MESH-1.15199 IS DISTORTING EXCESSIVELY.
   ELEMENT BONE_MESH-1.15200 IS DISTORTING EXCESSIVELY.
   ELEMENT BONE_MESH-1.15203 IS DISTORTING EXCESSIVELY.
   ELEMENT BONE_MESH-1.15204 IS DISTORTING EXCESSIVELY.
   ELEMENT BONE_MESH-1.15206 IS DISTORTING EXCESSIVELY.
   ELEMENT BONE_MESH-1.15208 IS DISTORTING EXCESSIVELY.
   ELEMENT BONE_MESH-1.15209 IS DISTORTING EXCESSIVELY.
   ELEMENT BONE_MESH-1.15210 IS DISTORTING EXCESSIVELY.
   ELEMENT BONE_MESH-1.15211 IS DISTORTING EXCESSIVELY.
   ELEMENT BONE_MESH-1.15215 IS DISTORTING EXCESSIVELY.
   ELEMENT BONE_MESH-1.15220 IS DISTORTING EXCESSIVELY.
   ELEMENT BONE_MESH-1.15221 IS DISTORTING EXCESSIVELY.
   ELEMENT BONE_MESH-1.15225 IS DISTORTING EXCESSIVELY.
   ELEMENT BONE_MESH-1.15229 IS DISTORTING EXCESSIVELY.
   ELEMENT BONE_MESH-1.15234 IS DISTORTING EXCESSIVELY.
   ELEMENT BONE_MESH-1.15236 IS DISTORTING EXCESSIVELY.
   ELEMENT BONE_MESH-1.15240 IS DISTORTING EXCESSIVELY.
   ELEMENT BONE_MESH-1.15243 IS DISTORTING EXCESSIVELY.
   ELEMENT BONE_MESH-1.15252 IS DISTORTING EXCESSIVELY.
   ELEMENT BONE_MESH-1.15253 IS DISTORTING EXCESSIVELY.
   ELEMENT BONE_MESH-1.15260 IS DISTORTING EXCESSIVELY.
   ELEMENT BONE_MESH-1.15266 IS DISTORTING EXCESSIVELY.
   ELEMENT BONE_MESH-1.15267 IS DISTORTING EXCESSIVELY.
   ELEMENT BONE_MESH-1.15270 IS DISTORTING EXCESSIVELY.
   ELEMENT BONE_MESH-1.15271 IS DISTORTING EXCESSIVELY.
   ELEMENT BONE_MESH-1.15272 IS DISTORTING EXCESSIVELY.
   ELEMENT BONE_MESH-1.15274 IS DISTORTING EXCESSIVELY.
   ELEMENT BONE_MESH-1.15275 IS DISTORTING EXCESSIVELY.
   ELEMENT BONE_MESH-1.15276 IS DISTORTING EXCESSIVELY.
   ELEMENT BONE_MESH-1.15279 IS DISTORTING EXCESSIVELY.
   ELEMENT BONE_MESH-1.15280 IS DISTORTING EXCESSIVELY.
   ELEMENT BONE_MESH-1.15281 IS DISTORTING EXCESSIVELY.
   ELEMENT BONE_MESH-1.15282 IS DISTORTING EXCESSIVELY.
   ELEMENT BONE_MESH-1.15285 IS DISTORTING EXCESSIVELY.
   ELEMENT BONE_MESH-1.15287 IS DISTORTING EXCESSIVELY.
   ELEMENT BONE_MESH-1.15291 IS DISTORTING EXCESSIVELY.
   ELEMENT BONE_MESH-1.15293 IS DISTORTING EXCESSIVELY.
   ELEMENT BONE_MESH-1.15295 IS DISTORTING EXCESSIVELY.
   ELEMENT BONE_MESH-1.15296 IS DISTORTING EXCESSIVELY.
   ELEMENT BONE_MESH-1.15298 IS DISTORTING EXCESSIVELY.
   ELEMENT BONE_MESH-1.15299 IS DISTORTING EXCESSIVELY.
   ELEMENT BONE_MESH-1.15301 IS DISTORTING EXCESSIVELY.
   ELEMENT BONE_MESH-1.15304 IS DISTORTING EXCESSIVELY.
   ELEMENT BONE_MESH-1.15305 IS DISTORTING EXCESSIVELY.
   ELEMENT BONE_MESH-1.15306 IS DISTORTING EXCESSIVELY.
   ELEMENT BONE_MESH-1.15308 IS DISTORTING EXCESSIVELY.
   ELEMENT BONE_MESH-1.15311 IS DISTORTING EXCESSIVELY.
   ELEMENT BONE_MESH-1.15312 IS DISTORTING EXCESSIVELY.
   ELEMENT BONE_MESH-1.15314 IS DISTORTING EXCESSIVELY.
   ELEMENT BONE_MESH-1.15319 IS DISTORTING EXCESSIVELY.
   ELEMENT BONE_MESH-1.15321 IS DISTORTING EXCESSIVELY.
   ELEMENT BONE_MESH-1.15324 IS DISTORTING EXCESSIVELY.
   ELEMENT BONE_MESH-1.15328 IS DISTORTING EXCESSIVELY.
   ELEMENT BONE_MESH-1.15334 IS DISTORTING EXCESSIVELY.
   ELEMENT BONE_MESH-1.15335 IS DISTORTING EXCESSIVELY.
   ELEMENT BONE_MESH-1.15339 IS DISTORTING EXCESSIVELY.
   ELEMENT BONE_MESH-1.15344 IS DISTORTING EXCESSIVELY.
   ELEMENT BONE_MESH-1.15347 IS DISTORTING EXCESSIVELY.
   ELEMENT BONE_MESH-1.15350 IS DISTORTING EXCESSIVELY.
   ELEMENT BONE_MESH-1.15351 IS DISTORTING EXCESSIVELY.
   ELEMENT BONE_MESH-1.15353 IS DISTORTING EXCESSIVELY.
   ELEMENT BONE_MESH-1.15357 IS DISTORTING EXCESSIVELY.
   ELEMENT BONE_MESH-1.15358 IS DISTORTING EXCESSIVELY.
   ELEMENT BONE_MESH-1.15360 IS DISTORTING EXCESSIVELY.
   ELEMENT BONE_MESH-1.15361 IS DISTORTING EXCESSIVELY.
   ELEMENT BONE_MESH-1.15364 IS DISTORTING EXCESSIVELY.
   ELEMENT BONE_MESH-1.15367 IS DISTORTING EXCESSIVELY.
   ELEMENT BONE_MESH-1.15370 IS DISTORTING EXCESSIVELY.
   ELEMENT BONE_MESH-1.15374 IS DISTORTING EXCESSIVELY.
   ELEMENT BONE_MESH-1.15390 IS DISTORTING EXCESSIVELY.
   ELEMENT BONE_MESH-1.15393 IS DISTORTING EXCESSIVELY.
   ELEMENT BONE_MESH-1.15401 IS DISTORTING EXCESSIVELY.
   ELEMENT BONE_MESH-1.15402 IS DISTORTING EXCESSIVELY.
   ELEMENT BONE_MESH-1.15405 IS DISTORTING EXCESSIVELY.
   ELEMENT BONE_MESH-1.15406 IS DISTORTING EXCESSIVELY.
   ELEMENT BONE_MESH-1.15408 IS DISTORTING EXCESSIVELY.
   ELEMENT BONE_MESH-1.15410 IS DISTORTING EXCESSIVELY.
   ELEMENT BONE_MESH-1.15411 IS DISTORTING EXCESSIVELY.
   ELEMENT BONE_MESH-1.15413 IS DISTORTING EXCESSIVELY.
   ELEMENT BONE_MESH-1.15414 IS DISTORTING EXCESSIVELY.
   ELEMENT BONE_MESH-1.15415 IS DISTORTING EXCESSIVELY.
   ELEMENT BONE_MESH-1.15416 IS DISTORTING EXCESSIVELY.
   ELEMENT BONE_MESH-1.15423 IS DISTORTING EXCESSIVELY.
   ELEMENT BONE_MESH-1.15426 IS DISTORTING EXCESSIVELY.
   ELEMENT BONE_MESH-1.15427 IS DISTORTING EXCESSIVELY.
   ELEMENT BONE_MESH-1.15428 IS DISTORTING EXCESSIVELY.
   ELEMENT BONE_MESH-1.15429 IS DISTORTING EXCESSIVELY.
   ELEMENT BONE_MESH-1.15430 IS DISTORTING EXCESSIVELY.
   ELEMENT BONE_MESH-1.15431 IS DISTORTING EXCESSIVELY.
   ELEMENT BONE_MESH-1.15432 IS DISTORTING EXCESSIVELY.
   ELEMENT BONE_MESH-1.15436 IS DISTORTING EXCESSIVELY.
   ELEMENT BONE_MESH-1.15437 IS DISTORTING EXCESSIVELY.
   ELEMENT BONE_MESH-1.15438 IS DISTORTING EXCESSIVELY.
   ELEMENT BONE_MESH-1.15439 IS DISTORTING EXCESSIVELY.
   ELEMENT BONE_MESH-1.15440 IS DISTORTING EXCESSIVELY.
   ELEMENT BONE_MESH-1.15442 IS DISTORTING EXCESSIVELY.
   ELEMENT BONE_MESH-1.15443 IS DISTORTING EXCESSIVELY.
   ELEMENT BONE_MESH-1.15446 IS DISTORTING EXCESSIVELY.
   ELEMENT BONE_MESH-1.15447 IS DISTORTING EXCESSIVELY.
   ELEMENT BONE_MESH-1.15448 IS DISTORTING EXCESSIVELY.
   ELEMENT BONE_MESH-1.15449 IS DISTORTING EXCESSIVELY.
   ELEMENT BONE_MESH-1.15450 IS DISTORTING EXCESSIVELY.
   ELEMENT BONE_MESH-1.15454 IS DISTORTING EXCESSIVELY.
   ELEMENT BONE_MESH-1.15455 IS DISTORTING EXCESSIVELY.
   ELEMENT BONE_MESH-1.15456 IS DISTORTING EXCESSIVELY.
   ELEMENT BONE_MESH-1.15473 IS DISTORTING EXCESSIVELY.
   ELEMENT BONE_MESH-1.15474 IS DISTORTING EXCESSIVELY.
   ELEMENT BONE_MESH-1.15475 IS DISTORTING EXCESSIVELY.
   ELEMENT BONE_MESH-1.15476 IS DISTORTING EXCESSIVELY.
   ELEMENT BONE_MESH-1.15477 IS DISTORTING EXCESSIVELY.
   ELEMENT BONE_MESH-1.15484 IS DISTORTING EXCESSIVELY.
   ELEMENT BONE_MESH-1.15485 IS DISTORTING EXCESSIVELY.
   ELEMENT BONE_MESH-1.15488 IS DISTORTING EXCESSIVELY.
   ELEMENT BONE_MESH-1.15489 IS DISTORTING EXCESSIVELY.
   ELEMENT BONE_MESH-1.15490 IS DISTORTING EXCESSIVELY.
   ELEMENT BONE_MESH-1.15491 IS DISTORTING EXCESSIVELY.
   ELEMENT BONE_MESH-1.15492 IS DISTORTING EXCESSIVELY.
   ELEMENT BONE_MESH-1.15498 IS DISTORTING EXCESSIVELY.
   ELEMENT BONE_MESH-1.15501 IS DISTORTING EXCESSIVELY.
   ELEMENT BONE_MESH-1.15502 IS DISTORTING EXCESSIVELY.
   ELEMENT BONE_MESH-1.15504 IS DISTORTING EXCESSIVELY.
   ELEMENT BONE_MESH-1.15505 IS DISTORTING EXCESSIVELY.
   ELEMENT BONE_MESH-1.15506 IS DISTORTING EXCESSIVELY.
   ELEMENT BONE_MESH-1.15507 IS DISTORTING EXCESSIVELY.
   ELEMENT BONE_MESH-1.15509 IS DISTORTING EXCESSIVELY.
   ELEMENT BONE_MESH-1.15514 IS DISTORTING EXCESSIVELY.
   ELEMENT BONE_MESH-1.15518 IS DISTORTING EXCESSIVELY.
   ELEMENT BONE_MESH-1.15520 IS DISTORTING EXCESSIVELY.
   ELEMENT BONE_MESH-1.15521 IS DISTORTING EXCESSIVELY.
   ELEMENT BONE_MESH-1.15522 IS DISTORTING EXCESSIVELY.
   ELEMENT BONE_MESH-1.15535 IS DISTORTING EXCESSIVELY.
   ELEMENT BONE_MESH-1.15544 IS DISTORTING EXCESSIVELY.
   ELEMENT BONE_MESH-1.15549 IS DISTORTING EXCESSIVELY.
   ELEMENT BONE_MESH-1.15553 IS DISTORTING EXCESSIVELY.
   ELEMENT BONE_MESH-1.15557 IS DISTORTING EXCESSIVELY.
   ELEMENT BONE_MESH-1.15559 IS DISTORTING EXCESSIVELY.
   ELEMENT BONE_MESH-1.15560 IS DISTORTING EXCESSIVELY.
   ELEMENT BONE_MESH-1.15562 IS DISTORTING EXCESSIVELY.
   ELEMENT BONE_MESH-1.15563 IS DISTORTING EXCESSIVELY.
   ELEMENT BONE_MESH-1.15564 IS DISTORTING EXCESSIVELY.
   ELEMENT BONE_MESH-1.15565 IS DISTORTING EXCESSIVELY.
   ELEMENT BONE_MESH-1.15566 IS DISTORTING EXCESSIVELY.
   ELEMENT BONE_MESH-1.15567 IS DISTORTING EXCESSIVELY.
   ELEMENT BONE_MESH-1.15568 IS DISTORTING EXCESSIVELY.
   ELEMENT BONE_MESH-1.15569 IS DISTORTING EXCESSIVELY.
   ELEMENT BONE_MESH-1.15570 IS DISTORTING EXCESSIVELY.
   ELEMENT BONE_MESH-1.15573 IS DISTORTING EXCESSIVELY.
   ELEMENT BONE_MESH-1.15574 IS DISTORTING EXCESSIVELY.
   ELEMENT BONE_MESH-1.15577 IS DISTORTING EXCESSIVELY.
   ELEMENT BONE_MESH-1.15578 IS DISTORTING EXCESSIVELY.
   ELEMENT BONE_MESH-1.15579 IS DISTORTING EXCESSIVELY.
   ELEMENT BONE_MESH-1.15580 IS DISTORTING EXCESSIVELY.
   ELEMENT BONE_MESH-1.15581 IS DISTORTING EXCESSIVELY.
   ELEMENT BONE_MESH-1.15582 IS DISTORTING EXCESSIVELY.
   ELEMENT BONE_MESH-1.15583 IS DISTORTING EXCESSIVELY.
   ELEMENT BONE_MESH-1.15585 IS DISTORTING EXCESSIVELY.
   ELEMENT BONE_MESH-1.15586 IS DISTORTING EXCESSIVELY.
   ELEMENT BONE_MESH-1.15587 IS DISTORTING EXCESSIVELY.
   ELEMENT BONE_MESH-1.15589 IS DISTORTING EXCESSIVELY.
   ELEMENT BONE_MESH-1.15590 IS DISTORTING EXCESSIVELY.
   ELEMENT BONE_MESH-1.15591 IS DISTORTING EXCESSIVELY.
   ELEMENT BONE_MESH-1.15594 IS DISTORTING EXCESSIVELY.
   ELEMENT BONE_MESH-1.15595 IS DISTORTING EXCESSIVELY.
   ELEMENT BONE_MESH-1.15598 IS DISTORTING EXCESSIVELY.
   ELEMENT BONE_MESH-1.15599 IS DISTORTING EXCESSIVELY.
   ELEMENT BONE_MESH-1.15609 IS DISTORTING EXCESSIVELY.
   ELEMENT BONE_MESH-1.15610 IS DISTORTING EXCESSIVELY.
   ELEMENT BONE_MESH-1.15611 IS DISTORTING EXCESSIVELY.
   ELEMENT BONE_MESH-1.15613 IS DISTORTING EXCESSIVELY.
   ELEMENT BONE_MESH-1.15614 IS DISTORTING EXCESSIVELY.
   ELEMENT BONE_MESH-1.15620 IS DISTORTING EXCESSIVELY.
   ELEMENT BONE_MESH-1.15622 IS DISTORTING EXCESSIVELY.
   ELEMENT BONE_MESH-1.15623 IS DISTORTING EXCESSIVELY.
   ELEMENT BONE_MESH-1.15626 IS DISTORTING EXCESSIVELY.
   ELEMENT BONE_MESH-1.15627 IS DISTORTING EXCESSIVELY.
   ELEMENT BONE_MESH-1.15630 IS DISTORTING EXCESSIVELY.
   ELEMENT BONE_MESH-1.15635 IS DISTORTING EXCESSIVELY.
   ELEMENT BONE_MESH-1.15639 IS DISTORTING EXCESSIVELY.
   ELEMENT BONE_MESH-1.15641 IS DISTORTING EXCESSIVELY.
   ELEMENT BONE_MESH-1.15642 IS DISTORTING EXCESSIVELY.
   ELEMENT BONE_MESH-1.15643 IS DISTORTING EXCESSIVELY.
   ELEMENT BONE_MESH-1.15644 IS DISTORTING EXCESSIVELY.
   ELEMENT BONE_MESH-1.15645 IS DISTORTING EXCESSIVELY.
   ELEMENT BONE_MESH-1.15646 IS DISTORTING EXCESSIVELY.
   ELEMENT BONE_MESH-1.15647 IS DISTORTING EXCESSIVELY.
   ELEMENT BONE_MESH-1.15649 IS DISTORTING EXCESSIVELY.
   ELEMENT BONE_MESH-1.15650 IS DISTORTING EXCESSIVELY.
   ELEMENT BONE_MESH-1.15653 IS DISTORTING EXCESSIVELY.
   ELEMENT BONE_MESH-1.15655 IS DISTORTING EXCESSIVELY.
   ELEMENT BONE_MESH-1.15660 IS DISTORTING EXCESSIVELY.
   ELEMENT BONE_MESH-1.15666 IS DISTORTING EXCESSIVELY.
   ELEMENT BONE_MESH-1.15669 IS DISTORTING EXCESSIVELY.
   ELEMENT BONE_MESH-1.15674 IS DISTORTING EXCESSIVELY.
   ELEMENT BONE_MESH-1.15675 IS DISTORTING EXCESSIVELY.
   ELEMENT BONE_MESH-1.15676 IS DISTORTING EXCESSIVELY.
   ELEMENT BONE_MESH-1.15677 IS DISTORTING EXCESSIVELY.
   ELEMENT BONE_MESH-1.15679 IS DISTORTING EXCESSIVELY.
   ELEMENT BONE_MESH-1.15680 IS DISTORTING EXCESSIVELY.
   ELEMENT BONE_MESH-1.15682 IS DISTORTING EXCESSIVELY.
   ELEMENT BONE_MESH-1.15685 IS DISTORTING EXCESSIVELY.
   ELEMENT BONE_MESH-1.15689 IS DISTORTING EXCESSIVELY.
   ELEMENT BONE_MESH-1.15693 IS DISTORTING EXCESSIVELY.
   ELEMENT BONE_MESH-1.15694 IS DISTORTING EXCESSIVELY.
   ELEMENT BONE_MESH-1.15697 IS DISTORTING EXCESSIVELY.
   ELEMENT BONE_MESH-1.15698 IS DISTORTING EXCESSIVELY.
   ELEMENT BONE_MESH-1.15700 IS DISTORTING EXCESSIVELY.
   ELEMENT BONE_MESH-1.15701 IS DISTORTING EXCESSIVELY.
   ELEMENT BONE_MESH-1.15704 IS DISTORTING EXCESSIVELY.
   ELEMENT BONE_MESH-1.15709 IS DISTORTING EXCESSIVELY.
   ELEMENT BONE_MESH-1.15713 IS DISTORTING EXCESSIVELY.
   ELEMENT BONE_MESH-1.15717 IS DISTORTING EXCESSIVELY.
   ELEMENT BONE_MESH-1.15718 IS DISTORTING EXCESSIVELY.
   ELEMENT BONE_MESH-1.15724 IS DISTORTING EXCESSIVELY.
   ELEMENT BONE_MESH-1.15726 IS DISTORTING EXCESSIVELY.
   ELEMENT BONE_MESH-1.15727 IS DISTORTING EXCESSIVELY.
   ELEMENT BONE_MESH-1.15729 IS DISTORTING EXCESSIVELY.
   ELEMENT BONE_MESH-1.15730 IS DISTORTING EXCESSIVELY.
   ELEMENT BONE_MESH-1.15731 IS DISTORTING EXCESSIVELY.
   ELEMENT BONE_MESH-1.15732 IS DISTORTING EXCESSIVELY.
   ELEMENT BONE_MESH-1.15733 IS DISTORTING EXCESSIVELY.
   ELEMENT BONE_MESH-1.15734 IS DISTORTING EXCESSIVELY.
   ELEMENT BONE_MESH-1.15735 IS DISTORTING EXCESSIVELY.
   ELEMENT BONE_MESH-1.15736 IS DISTORTING EXCESSIVELY.
   ELEMENT BONE_MESH-1.15737 IS DISTORTING EXCESSIVELY.
   ELEMENT BONE_MESH-1.15740 IS DISTORTING EXCESSIVELY.
   ELEMENT BONE_MESH-1.15742 IS DISTORTING EXCESSIVELY.
   ELEMENT BONE_MESH-1.15743 IS DISTORTING EXCESSIVELY.
   ELEMENT BONE_MESH-1.15744 IS DISTORTING EXCESSIVELY.
   ELEMENT BONE_MESH-1.15748 IS DISTORTING EXCESSIVELY.
   ELEMENT BONE_MESH-1.15749 IS DISTORTING EXCESSIVELY.
   ELEMENT BONE_MESH-1.15755 IS DISTORTING EXCESSIVELY.
   ELEMENT BONE_MESH-1.15759 IS DISTORTING EXCESSIVELY.
   ELEMENT BONE_MESH-1.15766 IS DISTORTING EXCESSIVELY.
   ELEMENT BONE_MESH-1.15771 IS DISTORTING EXCESSIVELY.
   ELEMENT BONE_MESH-1.15772 IS DISTORTING EXCESSIVELY.
   ELEMENT BONE_MESH-1.15782 IS DISTORTING EXCESSIVELY.
   ELEMENT BONE_MESH-1.15783 IS DISTORTING EXCESSIVELY.
   ELEMENT BONE_MESH-1.15784 IS DISTORTING EXCESSIVELY.
   ELEMENT BONE_MESH-1.15789 IS DISTORTING EXCESSIVELY.
   ELEMENT BONE_MESH-1.15790 IS DISTORTING EXCESSIVELY.
   ELEMENT BONE_MESH-1.15793 IS DISTORTING EXCESSIVELY.
   ELEMENT BONE_MESH-1.15794 IS DISTORTING EXCESSIVELY.
   ELEMENT BONE_MESH-1.15797 IS DISTORTING EXCESSIVELY.
   ELEMENT BONE_MESH-1.15803 IS DISTORTING EXCESSIVELY.
   ELEMENT BONE_MESH-1.15805 IS DISTORTING EXCESSIVELY.
   ELEMENT BONE_MESH-1.15807 IS DISTORTING EXCESSIVELY.
   ELEMENT BONE_MESH-1.15810 IS DISTORTING EXCESSIVELY.
   ELEMENT BONE_MESH-1.15812 IS DISTORTING EXCESSIVELY.
   ELEMENT BONE_MESH-1.15814 IS DISTORTING EXCESSIVELY.
   ELEMENT BONE_MESH-1.15816 IS DISTORTING EXCESSIVELY.
   ELEMENT BONE_MESH-1.15818 IS DISTORTING EXCESSIVELY.
   ELEMENT BONE_MESH-1.15823 IS DISTORTING EXCESSIVELY.
   ELEMENT BONE_MESH-1.15824 IS DISTORTING EXCESSIVELY.
   ELEMENT BONE_MESH-1.15825 IS DISTORTING EXCESSIVELY.
   ELEMENT BONE_MESH-1.15826 IS DISTORTING EXCESSIVELY.
   ELEMENT BONE_MESH-1.15827 IS DISTORTING EXCESSIVELY.
   ELEMENT BONE_MESH-1.15828 IS DISTORTING EXCESSIVELY.
   ELEMENT BONE_MESH-1.15831 IS DISTORTING EXCESSIVELY.
   ELEMENT BONE_MESH-1.15832 IS DISTORTING EXCESSIVELY.
   ELEMENT BONE_MESH-1.15833 IS DISTORTING EXCESSIVELY.
   ELEMENT BONE_MESH-1.15834 IS DISTORTING EXCESSIVELY.
   ELEMENT BONE_MESH-1.15835 IS DISTORTING EXCESSIVELY.
   ELEMENT BONE_MESH-1.15836 IS DISTORTING EXCESSIVELY.
   ELEMENT BONE_MESH-1.15837 IS DISTORTING EXCESSIVELY.
   ELEMENT BONE_MESH-1.15838 IS DISTORTING EXCESSIVELY.
   ELEMENT BONE_MESH-1.15848 IS DISTORTING EXCESSIVELY.
   ELEMENT BONE_MESH-1.15850 IS DISTORTING EXCESSIVELY.
   ELEMENT BONE_MESH-1.15851 IS DISTORTING EXCESSIVELY.
   ELEMENT BONE_MESH-1.15852 IS DISTORTING EXCESSIVELY.
   ELEMENT BONE_MESH-1.15853 IS DISTORTING EXCESSIVELY.
   ELEMENT BONE_MESH-1.15854 IS DISTORTING EXCESSIVELY.
   ELEMENT BONE_MESH-1.15855 IS DISTORTING EXCESSIVELY.
   ELEMENT BONE_MESH-1.15856 IS DISTORTING EXCESSIVELY.
   ELEMENT BONE_MESH-1.15857 IS DISTORTING EXCESSIVELY.
   ELEMENT BONE_MESH-1.15858 IS DISTORTING EXCESSIVELY.
   ELEMENT BONE_MESH-1.15862 IS DISTORTING EXCESSIVELY.
   ELEMENT BONE_MESH-1.15863 IS DISTORTING EXCESSIVELY.
   ELEMENT BONE_MESH-1.15864 IS DISTORTING EXCESSIVELY.
   ELEMENT BONE_MESH-1.15869 IS DISTORTING EXCESSIVELY.
   ELEMENT BONE_MESH-1.15870 IS DISTORTING EXCESSIVELY.
   ELEMENT BONE_MESH-1.15873 IS DISTORTING EXCESSIVELY.
   ELEMENT BONE_MESH-1.15874 IS DISTORTING EXCESSIVELY.
   ELEMENT BONE_MESH-1.15875 IS DISTORTING EXCESSIVELY.
   ELEMENT BONE_MESH-1.15878 IS DISTORTING EXCESSIVELY.
   ELEMENT BONE_MESH-1.15879 IS DISTORTING EXCESSIVELY.
   ELEMENT BONE_MESH-1.15886 IS DISTORTING EXCESSIVELY.
   ELEMENT BONE_MESH-1.15887 IS DISTORTING EXCESSIVELY.
   ELEMENT BONE_MESH-1.15888 IS DISTORTING EXCESSIVELY.
   ELEMENT BONE_MESH-1.15889 IS DISTORTING EXCESSIVELY.
   ELEMENT BONE_MESH-1.15890 IS DISTORTING EXCESSIVELY.
   ELEMENT BONE_MESH-1.15891 IS DISTORTING EXCESSIVELY.
   ELEMENT BONE_MESH-1.15894 IS DISTORTING EXCESSIVELY.
   ELEMENT BONE_MESH-1.15896 IS DISTORTING EXCESSIVELY.
   ELEMENT BONE_MESH-1.15899 IS DISTORTING EXCESSIVELY.
   ELEMENT BONE_MESH-1.15900 IS DISTORTING EXCESSIVELY.
   ELEMENT BONE_MESH-1.15901 IS DISTORTING EXCESSIVELY.
   ELEMENT BONE_MESH-1.15904 IS DISTORTING EXCESSIVELY.
   ELEMENT BONE_MESH-1.15905 IS DISTORTING EXCESSIVELY.
   ELEMENT BONE_MESH-1.15906 IS DISTORTING EXCESSIVELY.
   ELEMENT BONE_MESH-1.15910 IS DISTORTING EXCESSIVELY.
   ELEMENT BONE_MESH-1.15911 IS DISTORTING EXCESSIVELY.
   ELEMENT BONE_MESH-1.15918 IS DISTORTING EXCESSIVELY.
   ELEMENT BONE_MESH-1.15923 IS DISTORTING EXCESSIVELY.
   ELEMENT BONE_MESH-1.15924 IS DISTORTING EXCESSIVELY.
   ELEMENT BONE_MESH-1.15929 IS DISTORTING EXCESSIVELY.
   ELEMENT BONE_MESH-1.15930 IS DISTORTING EXCESSIVELY.
   ELEMENT BONE_MESH-1.15931 IS DISTORTING EXCESSIVELY.
   ELEMENT BONE_MESH-1.15932 IS DISTORTING EXCESSIVELY.
   ELEMENT BONE_MESH-1.15934 IS DISTORTING EXCESSIVELY.
   ELEMENT BONE_MESH-1.15937 IS DISTORTING EXCESSIVELY.
   ELEMENT BONE_MESH-1.15938 IS DISTORTING EXCESSIVELY.
   ELEMENT BONE_MESH-1.15940 IS DISTORTING EXCESSIVELY.
   ELEMENT BONE_MESH-1.15941 IS DISTORTING EXCESSIVELY.
   ELEMENT BONE_MESH-1.15942 IS DISTORTING EXCESSIVELY.
   ELEMENT BONE_MESH-1.15944 IS DISTORTING EXCESSIVELY.
   ELEMENT BONE_MESH-1.15945 IS DISTORTING EXCESSIVELY.
   ELEMENT BONE_MESH-1.15946 IS DISTORTING EXCESSIVELY.
   ELEMENT BONE_MESH-1.15947 IS DISTORTING EXCESSIVELY.
   ELEMENT BONE_MESH-1.15950 IS DISTORTING EXCESSIVELY.
   ELEMENT BONE_MESH-1.15951 IS DISTORTING EXCESSIVELY.
   ELEMENT BONE_MESH-1.15952 IS DISTORTING EXCESSIVELY.
   ELEMENT BONE_MESH-1.15953 IS DISTORTING EXCESSIVELY.
   ELEMENT BONE_MESH-1.15954 IS DISTORTING EXCESSIVELY.
   ELEMENT BONE_MESH-1.15955 IS DISTORTING EXCESSIVELY.
   ELEMENT BONE_MESH-1.15956 IS DISTORTING EXCESSIVELY.
   ELEMENT BONE_MESH-1.15959 IS DISTORTING EXCESSIVELY.
   ELEMENT BONE_MESH-1.15961 IS DISTORTING EXCESSIVELY.
   ELEMENT BONE_MESH-1.15965 IS DISTORTING EXCESSIVELY.
   ELEMENT BONE_MESH-1.15966 IS DISTORTING EXCESSIVELY.
   ELEMENT BONE_MESH-1.15967 IS DISTORTING EXCESSIVELY.
   ELEMENT BONE_MESH-1.15968 IS DISTORTING EXCESSIVELY.
   ELEMENT BONE_MESH-1.15970 IS DISTORTING EXCESSIVELY.
   ELEMENT BONE_MESH-1.15971 IS DISTORTING EXCESSIVELY.
   ELEMENT BONE_MESH-1.15972 IS DISTORTING EXCESSIVELY.
   ELEMENT BONE_MESH-1.15974 IS DISTORTING EXCESSIVELY.
   ELEMENT BONE_MESH-1.15975 IS DISTORTING EXCESSIVELY.
   ELEMENT BONE_MESH-1.15976 IS DISTORTING EXCESSIVELY.
   ELEMENT BONE_MESH-1.15977 IS DISTORTING EXCESSIVELY.
   ELEMENT BONE_MESH-1.15979 IS DISTORTING EXCESSIVELY.
   ELEMENT BONE_MESH-1.15980 IS DISTORTING EXCESSIVELY.
   ELEMENT BONE_MESH-1.15983 IS DISTORTING EXCESSIVELY.
   ELEMENT BONE_MESH-1.15985 IS DISTORTING EXCESSIVELY.
   ELEMENT BONE_MESH-1.15989 IS DISTORTING EXCESSIVELY.
   ELEMENT BONE_MESH-1.15990 IS DISTORTING EXCESSIVELY.
   ELEMENT BONE_MESH-1.15991 IS DISTORTING EXCESSIVELY.
   ELEMENT BONE_MESH-1.15992 IS DISTORTING EXCESSIVELY.
   ELEMENT BONE_MESH-1.15993 IS DISTORTING EXCESSIVELY.
   ELEMENT BONE_MESH-1.15994 IS DISTORTING EXCESSIVELY.
   ELEMENT BONE_MESH-1.15995 IS DISTORTING EXCESSIVELY.
   ELEMENT BONE_MESH-1.15996 IS DISTORTING EXCESSIVELY.
   ELEMENT BONE_MESH-1.16000 IS DISTORTING EXCESSIVELY.
   ELEMENT BONE_MESH-1.16001 IS DISTORTING EXCESSIVELY.
   ELEMENT BONE_MESH-1.16009 IS DISTORTING EXCESSIVELY.
   ELEMENT BONE_MESH-1.16011 IS DISTORTING EXCESSIVELY.
   ELEMENT BONE_MESH-1.16012 IS DISTORTING EXCESSIVELY.
   ELEMENT BONE_MESH-1.16014 IS DISTORTING EXCESSIVELY.
   ELEMENT BONE_MESH-1.16016 IS DISTORTING EXCESSIVELY.
   ELEMENT BONE_MESH-1.16021 IS DISTORTING EXCESSIVELY.
   ELEMENT BONE_MESH-1.16022 IS DISTORTING EXCESSIVELY.
   ELEMENT BONE_MESH-1.16024 IS DISTORTING EXCESSIVELY.
   ELEMENT BONE_MESH-1.16025 IS DISTORTING EXCESSIVELY.
   ELEMENT BONE_MESH-1.16027 IS DISTORTING EXCESSIVELY.
   ELEMENT BONE_MESH-1.16029 IS DISTORTING EXCESSIVELY.
   ELEMENT BONE_MESH-1.16032 IS DISTORTING EXCESSIVELY.
   ELEMENT BONE_MESH-1.16033 IS DISTORTING EXCESSIVELY.
   ELEMENT BONE_MESH-1.16034 IS DISTORTING EXCESSIVELY.
   ELEMENT BONE_MESH-1.16035 IS DISTORTING EXCESSIVELY.
   ELEMENT BONE_MESH-1.16036 IS DISTORTING EXCESSIVELY.
   ELEMENT BONE_MESH-1.16039 IS DISTORTING EXCESSIVELY.
   ELEMENT BONE_MESH-1.16040 IS DISTORTING EXCESSIVELY.
   ELEMENT BONE_MESH-1.16041 IS DISTORTING EXCESSIVELY.
   ELEMENT BONE_MESH-1.16042 IS DISTORTING EXCESSIVELY.
   ELEMENT BONE_MESH-1.16043 IS DISTORTING EXCESSIVELY.
   ELEMENT BONE_MESH-1.16055 IS DISTORTING EXCESSIVELY.
   ELEMENT BONE_MESH-1.16064 IS DISTORTING EXCESSIVELY.
   ELEMENT BONE_MESH-1.16065 IS DISTORTING EXCESSIVELY.
   ELEMENT BONE_MESH-1.16067 IS DISTORTING EXCESSIVELY.
   ELEMENT BONE_MESH-1.16073 IS DISTORTING EXCESSIVELY.
   ELEMENT BONE_MESH-1.16075 IS DISTORTING EXCESSIVELY.
   ELEMENT BONE_MESH-1.16078 IS DISTORTING EXCESSIVELY.
   ELEMENT BONE_MESH-1.16079 IS DISTORTING EXCESSIVELY.
   ELEMENT BONE_MESH-1.16081 IS DISTORTING EXCESSIVELY.
   ELEMENT BONE_MESH-1.16083 IS DISTORTING EXCESSIVELY.
   ELEMENT BONE_MESH-1.16085 IS DISTORTING EXCESSIVELY.
   ELEMENT BONE_MESH-1.16087 IS DISTORTING EXCESSIVELY.
   ELEMENT BONE_MESH-1.16088 IS DISTORTING EXCESSIVELY.
   ELEMENT BONE_MESH-1.16089 IS DISTORTING EXCESSIVELY.
   ELEMENT BONE_MESH-1.16092 IS DISTORTING EXCESSIVELY.
   ELEMENT BONE_MESH-1.16093 IS DISTORTING EXCESSIVELY.
   ELEMENT BONE_MESH-1.16095 IS DISTORTING EXCESSIVELY.
   ELEMENT BONE_MESH-1.16097 IS DISTORTING EXCESSIVELY.
   ELEMENT BONE_MESH-1.16098 IS DISTORTING EXCESSIVELY.
   ELEMENT BONE_MESH-1.16099 IS DISTORTING EXCESSIVELY.
   ELEMENT BONE_MESH-1.16100 IS DISTORTING EXCESSIVELY.
   ELEMENT BONE_MESH-1.16104 IS DISTORTING EXCESSIVELY.
   ELEMENT BONE_MESH-1.16109 IS DISTORTING EXCESSIVELY.
   ELEMENT BONE_MESH-1.16110 IS DISTORTING EXCESSIVELY.
   ELEMENT BONE_MESH-1.16114 IS DISTORTING EXCESSIVELY.
   ELEMENT BONE_MESH-1.16118 IS DISTORTING EXCESSIVELY.
   ELEMENT BONE_MESH-1.16123 IS DISTORTING EXCESSIVELY.
   ELEMENT BONE_MESH-1.16125 IS DISTORTING EXCESSIVELY.
   ELEMENT BONE_MESH-1.16129 IS DISTORTING EXCESSIVELY.
   ELEMENT BONE_MESH-1.16132 IS DISTORTING EXCESSIVELY.
   ELEMENT BONE_MESH-1.16141 IS DISTORTING EXCESSIVELY.
   ELEMENT BONE_MESH-1.16142 IS DISTORTING EXCESSIVELY.
   ELEMENT BONE_MESH-1.16149 IS DISTORTING EXCESSIVELY.
   ELEMENT BONE_MESH-1.16155 IS DISTORTING EXCESSIVELY.
   ELEMENT BONE_MESH-1.16156 IS DISTORTING EXCESSIVELY.
   ELEMENT BONE_MESH-1.16159 IS DISTORTING EXCESSIVELY.
   ELEMENT BONE_MESH-1.16160 IS DISTORTING EXCESSIVELY.
   ELEMENT BONE_MESH-1.16161 IS DISTORTING EXCESSIVELY.
   ELEMENT BONE_MESH-1.16163 IS DISTORTING EXCESSIVELY.
   ELEMENT BONE_MESH-1.16164 IS DISTORTING EXCESSIVELY.
   ELEMENT BONE_MESH-1.16165 IS DISTORTING EXCESSIVELY.
   ELEMENT BONE_MESH-1.16168 IS DISTORTING EXCESSIVELY.
   ELEMENT BONE_MESH-1.16169 IS DISTORTING EXCESSIVELY.
   ELEMENT BONE_MESH-1.16170 IS DISTORTING EXCESSIVELY.
   ELEMENT BONE_MESH-1.16171 IS DISTORTING EXCESSIVELY.
   ELEMENT BONE_MESH-1.16174 IS DISTORTING EXCESSIVELY.
   ELEMENT BONE_MESH-1.16176 IS DISTORTING EXCESSIVELY.
   ELEMENT BONE_MESH-1.16180 IS DISTORTING EXCESSIVELY.
   ELEMENT BONE_MESH-1.16182 IS DISTORTING EXCESSIVELY.
   ELEMENT BONE_MESH-1.16184 IS DISTORTING EXCESSIVELY.
   ELEMENT BONE_MESH-1.16185 IS DISTORTING EXCESSIVELY.
   ELEMENT BONE_MESH-1.16187 IS DISTORTING EXCESSIVELY.
   ELEMENT BONE_MESH-1.16188 IS DISTORTING EXCESSIVELY.
   ELEMENT BONE_MESH-1.16190 IS DISTORTING EXCESSIVELY.
   ELEMENT BONE_MESH-1.16193 IS DISTORTING EXCESSIVELY.
   ELEMENT BONE_MESH-1.16194 IS DISTORTING EXCESSIVELY.
   ELEMENT BONE_MESH-1.16195 IS DISTORTING EXCESSIVELY.
   ELEMENT BONE_MESH-1.16197 IS DISTORTING EXCESSIVELY.
   ELEMENT BONE_MESH-1.16200 IS DISTORTING EXCESSIVELY.
   ELEMENT BONE_MESH-1.16201 IS DISTORTING EXCESSIVELY.
   ELEMENT BONE_MESH-1.16203 IS DISTORTING EXCESSIVELY.
   ELEMENT BONE_MESH-1.16208 IS DISTORTING EXCESSIVELY.
   ELEMENT BONE_MESH-1.16210 IS DISTORTING EXCESSIVELY.
   ELEMENT BONE_MESH-1.16213 IS DISTORTING EXCESSIVELY.
   ELEMENT BONE_MESH-1.16217 IS DISTORTING EXCESSIVELY.
   ELEMENT BONE_MESH-1.16223 IS DISTORTING EXCESSIVELY.
   ELEMENT BONE_MESH-1.16224 IS DISTORTING EXCESSIVELY.
   ELEMENT BONE_MESH-1.16228 IS DISTORTING EXCESSIVELY.
   ELEMENT BONE_MESH-1.16233 IS DISTORTING EXCESSIVELY.
   ELEMENT BONE_MESH-1.16236 IS DISTORTING EXCESSIVELY.
   ELEMENT BONE_MESH-1.16239 IS DISTORTING EXCESSIVELY.
   ELEMENT BONE_MESH-1.16240 IS DISTORTING EXCESSIVELY.
   ELEMENT BONE_MESH-1.16242 IS DISTORTING EXCESSIVELY.
   ELEMENT BONE_MESH-1.16246 IS DISTORTING EXCESSIVELY.
   ELEMENT BONE_MESH-1.16247 IS DISTORTING EXCESSIVELY.
   ELEMENT BONE_MESH-1.16249 IS DISTORTING EXCESSIVELY.
   ELEMENT BONE_MESH-1.16250 IS DISTORTING EXCESSIVELY.
   ELEMENT BONE_MESH-1.16253 IS DISTORTING EXCESSIVELY.
   ELEMENT BONE_MESH-1.16256 IS DISTORTING EXCESSIVELY.
   ELEMENT BONE_MESH-1.16259 IS DISTORTING EXCESSIVELY.
   ELEMENT BONE_MESH-1.16263 IS DISTORTING EXCESSIVELY.
   ELEMENT BONE_MESH-1.16279 IS DISTORTING EXCESSIVELY.
   ELEMENT BONE_MESH-1.16282 IS DISTORTING EXCESSIVELY.
   ELEMENT BONE_MESH-1.16290 IS DISTORTING EXCESSIVELY.
   ELEMENT BONE_MESH-1.16291 IS DISTORTING EXCESSIVELY.
   ELEMENT BONE_MESH-1.16294 IS DISTORTING EXCESSIVELY.
   ELEMENT BONE_MESH-1.16295 IS DISTORTING EXCESSIVELY.
   ELEMENT BONE_MESH-1.16297 IS DISTORTING EXCESSIVELY.
   ELEMENT BONE_MESH-1.16299 IS DISTORTING EXCESSIVELY.
   ELEMENT BONE_MESH-1.16300 IS DISTORTING EXCESSIVELY.
   ELEMENT BONE_MESH-1.16302 IS DISTORTING EXCESSIVELY.
   ELEMENT BONE_MESH-1.16303 IS DISTORTING EXCESSIVELY.
   ELEMENT BONE_MESH-1.16304 IS DISTORTING EXCESSIVELY.
   ELEMENT BONE_MESH-1.16305 IS DISTORTING EXCESSIVELY.
   ELEMENT BONE_MESH-1.16312 IS DISTORTING EXCESSIVELY.
   ELEMENT BONE_MESH-1.16315 IS DISTORTING EXCESSIVELY.
   ELEMENT BONE_MESH-1.16316 IS DISTORTING EXCESSIVELY.
   ELEMENT BONE_MESH-1.16317 IS DISTORTING EXCESSIVELY.
   ELEMENT BONE_MESH-1.16318 IS DISTORTING EXCESSIVELY.
   ELEMENT BONE_MESH-1.16319 IS DISTORTING EXCESSIVELY.
   ELEMENT BONE_MESH-1.16320 IS DISTORTING EXCESSIVELY.
   ELEMENT BONE_MESH-1.16321 IS DISTORTING EXCESSIVELY.
   ELEMENT BONE_MESH-1.16325 IS DISTORTING EXCESSIVELY.
   ELEMENT BONE_MESH-1.16326 IS DISTORTING EXCESSIVELY.
   ELEMENT BONE_MESH-1.16327 IS DISTORTING EXCESSIVELY.
   ELEMENT BONE_MESH-1.16328 IS DISTORTING EXCESSIVELY.
   ELEMENT BONE_MESH-1.16329 IS DISTORTING EXCESSIVELY.
   ELEMENT BONE_MESH-1.16331 IS DISTORTING EXCESSIVELY.
   ELEMENT BONE_MESH-1.16332 IS DISTORTING EXCESSIVELY.
   ELEMENT BONE_MESH-1.16335 IS DISTORTING EXCESSIVELY.
   ELEMENT BONE_MESH-1.16336 IS DISTORTING EXCESSIVELY.
   ELEMENT BONE_MESH-1.16337 IS DISTORTING EXCESSIVELY.
   ELEMENT BONE_MESH-1.16338 IS DISTORTING EXCESSIVELY.
   ELEMENT BONE_MESH-1.16339 IS DISTORTING EXCESSIVELY.
   ELEMENT BONE_MESH-1.16343 IS DISTORTING EXCESSIVELY.
   ELEMENT BONE_MESH-1.16344 IS DISTORTING EXCESSIVELY.
   ELEMENT BONE_MESH-1.16345 IS DISTORTING EXCESSIVELY.
   ELEMENT BONE_MESH-1.16362 IS DISTORTING EXCESSIVELY.
   ELEMENT BONE_MESH-1.16363 IS DISTORTING EXCESSIVELY.
   ELEMENT BONE_MESH-1.16364 IS DISTORTING EXCESSIVELY.
   ELEMENT BONE_MESH-1.16365 IS DISTORTING EXCESSIVELY.
   ELEMENT BONE_MESH-1.16366 IS DISTORTING EXCESSIVELY.
   ELEMENT BONE_MESH-1.16373 IS DISTORTING EXCESSIVELY.
   ELEMENT BONE_MESH-1.16374 IS DISTORTING EXCESSIVELY.
   ELEMENT BONE_MESH-1.16377 IS DISTORTING EXCESSIVELY.
   ELEMENT BONE_MESH-1.16378 IS DISTORTING EXCESSIVELY.
   ELEMENT BONE_MESH-1.16379 IS DISTORTING EXCESSIVELY.
   ELEMENT BONE_MESH-1.16380 IS DISTORTING EXCESSIVELY.
   ELEMENT BONE_MESH-1.16381 IS DISTORTING EXCESSIVELY.
   ELEMENT BONE_MESH-1.16387 IS DISTORTING EXCESSIVELY.
   ELEMENT BONE_MESH-1.16390 IS DISTORTING EXCESSIVELY.
   ELEMENT BONE_MESH-1.16391 IS DISTORTING EXCESSIVELY.
   ELEMENT BONE_MESH-1.16393 IS DISTORTING EXCESSIVELY.
   ELEMENT BONE_MESH-1.16394 IS DISTORTING EXCESSIVELY.
   ELEMENT BONE_MESH-1.16395 IS DISTORTING EXCESSIVELY.
   ELEMENT BONE_MESH-1.16396 IS DISTORTING EXCESSIVELY.
   ELEMENT BONE_MESH-1.16398 IS DISTORTING EXCESSIVELY.
   ELEMENT BONE_MESH-1.16403 IS DISTORTING EXCESSIVELY.
   ELEMENT BONE_MESH-1.16407 IS DISTORTING EXCESSIVELY.
   ELEMENT BONE_MESH-1.16409 IS DISTORTING EXCESSIVELY.
   ELEMENT BONE_MESH-1.16410 IS DISTORTING EXCESSIVELY.
   ELEMENT BONE_MESH-1.16411 IS DISTORTING EXCESSIVELY.
   ELEMENT BONE_MESH-1.16424 IS DISTORTING EXCESSIVELY.
   ELEMENT BONE_MESH-1.16433 IS DISTORTING EXCESSIVELY.
   ELEMENT BONE_MESH-1.16438 IS DISTORTING EXCESSIVELY.
   ELEMENT BONE_MESH-1.16442 IS DISTORTING EXCESSIVELY.
   ELEMENT BONE_MESH-1.16446 IS DISTORTING EXCESSIVELY.
   ELEMENT BONE_MESH-1.16448 IS DISTORTING EXCESSIVELY.
   ELEMENT BONE_MESH-1.16449 IS DISTORTING EXCESSIVELY.
   ELEMENT BONE_MESH-1.16451 IS DISTORTING EXCESSIVELY.
   ELEMENT BONE_MESH-1.16452 IS DISTORTING EXCESSIVELY.
   ELEMENT BONE_MESH-1.16453 IS DISTORTING EXCESSIVELY.
   ELEMENT BONE_MESH-1.16454 IS DISTORTING EXCESSIVELY.
   ELEMENT BONE_MESH-1.16455 IS DISTORTING EXCESSIVELY.
   ELEMENT BONE_MESH-1.16456 IS DISTORTING EXCESSIVELY.
   ELEMENT BONE_MESH-1.16457 IS DISTORTING EXCESSIVELY.
   ELEMENT BONE_MESH-1.16458 IS DISTORTING EXCESSIVELY.
   ELEMENT BONE_MESH-1.16459 IS DISTORTING EXCESSIVELY.
   ELEMENT BONE_MESH-1.16462 IS DISTORTING EXCESSIVELY.
   ELEMENT BONE_MESH-1.16463 IS DISTORTING EXCESSIVELY.
   ELEMENT BONE_MESH-1.16466 IS DISTORTING EXCESSIVELY.
   ELEMENT BONE_MESH-1.16467 IS DISTORTING EXCESSIVELY.
   ELEMENT BONE_MESH-1.16468 IS DISTORTING EXCESSIVELY.
   ELEMENT BONE_MESH-1.16469 IS DISTORTING EXCESSIVELY.
   ELEMENT BONE_MESH-1.16470 IS DISTORTING EXCESSIVELY.
   ELEMENT BONE_MESH-1.16471 IS DISTORTING EXCESSIVELY.
   ELEMENT BONE_MESH-1.16472 IS DISTORTING EXCESSIVELY.
   ELEMENT BONE_MESH-1.16474 IS DISTORTING EXCESSIVELY.
   ELEMENT BONE_MESH-1.16475 IS DISTORTING EXCESSIVELY.
   ELEMENT BONE_MESH-1.16476 IS DISTORTING EXCESSIVELY.
   ELEMENT BONE_MESH-1.16478 IS DISTORTING EXCESSIVELY.
   ELEMENT BONE_MESH-1.16479 IS DISTORTING EXCESSIVELY.
   ELEMENT BONE_MESH-1.16480 IS DISTORTING EXCESSIVELY.
   ELEMENT BONE_MESH-1.16483 IS DISTORTING EXCESSIVELY.
   ELEMENT BONE_MESH-1.16484 IS DISTORTING EXCESSIVELY.
   ELEMENT BONE_MESH-1.16487 IS DISTORTING EXCESSIVELY.
   ELEMENT BONE_MESH-1.16488 IS DISTORTING EXCESSIVELY.
   ELEMENT BONE_MESH-1.16498 IS DISTORTING EXCESSIVELY.
   ELEMENT BONE_MESH-1.16499 IS DISTORTING EXCESSIVELY.
   ELEMENT BONE_MESH-1.16500 IS DISTORTING EXCESSIVELY.
   ELEMENT BONE_MESH-1.16502 IS DISTORTING EXCESSIVELY.
   ELEMENT BONE_MESH-1.16503 IS DISTORTING EXCESSIVELY.
   ELEMENT BONE_MESH-1.16509 IS DISTORTING EXCESSIVELY.
   ELEMENT BONE_MESH-1.16511 IS DISTORTING EXCESSIVELY.
   ELEMENT BONE_MESH-1.16512 IS DISTORTING EXCESSIVELY.
   ELEMENT BONE_MESH-1.16515 IS DISTORTING EXCESSIVELY.
   ELEMENT BONE_MESH-1.16516 IS DISTORTING EXCESSIVELY.
   ELEMENT BONE_MESH-1.16519 IS DISTORTING EXCESSIVELY.
   ELEMENT BONE_MESH-1.16524 IS DISTORTING EXCESSIVELY.
   ELEMENT BONE_MESH-1.16528 IS DISTORTING EXCESSIVELY.
   ELEMENT BONE_MESH-1.16530 IS DISTORTING EXCESSIVELY.
   ELEMENT BONE_MESH-1.16531 IS DISTORTING EXCESSIVELY.
   ELEMENT BONE_MESH-1.16532 IS DISTORTING EXCESSIVELY.
   ELEMENT BONE_MESH-1.16533 IS DISTORTING EXCESSIVELY.
   ELEMENT BONE_MESH-1.16534 IS DISTORTING EXCESSIVELY.
   ELEMENT BONE_MESH-1.16535 IS DISTORTING EXCESSIVELY.
   ELEMENT BONE_MESH-1.16536 IS DISTORTING EXCESSIVELY.
   ELEMENT BONE_MESH-1.16538 IS DISTORTING EXCESSIVELY.
   ELEMENT BONE_MESH-1.16539 IS DISTORTING EXCESSIVELY.
   ELEMENT BONE_MESH-1.16542 IS DISTORTING EXCESSIVELY.
   ELEMENT BONE_MESH-1.16544 IS DISTORTING EXCESSIVELY.
   ELEMENT BONE_MESH-1.16549 IS DISTORTING EXCESSIVELY.
   ELEMENT BONE_MESH-1.16555 IS DISTORTING EXCESSIVELY.
   ELEMENT BONE_MESH-1.16558 IS DISTORTING EXCESSIVELY.
   ELEMENT BONE_MESH-1.16563 IS DISTORTING EXCESSIVELY.
   ELEMENT BONE_MESH-1.16564 IS DISTORTING EXCESSIVELY.
   ELEMENT BONE_MESH-1.16565 IS DISTORTING EXCESSIVELY.
   ELEMENT BONE_MESH-1.16566 IS DISTORTING EXCESSIVELY.
   ELEMENT BONE_MESH-1.16568 IS DISTORTING EXCESSIVELY.
   ELEMENT BONE_MESH-1.16569 IS DISTORTING EXCESSIVELY.
   ELEMENT BONE_MESH-1.16571 IS DISTORTING EXCESSIVELY.
   ELEMENT BONE_MESH-1.16574 IS DISTORTING EXCESSIVELY.
   ELEMENT BONE_MESH-1.16578 IS DISTORTING EXCESSIVELY.
   ELEMENT BONE_MESH-1.16582 IS DISTORTING EXCESSIVELY.
   ELEMENT BONE_MESH-1.16583 IS DISTORTING EXCESSIVELY.
   ELEMENT BONE_MESH-1.16586 IS DISTORTING EXCESSIVELY.
   ELEMENT BONE_MESH-1.16587 IS DISTORTING EXCESSIVELY.
   ELEMENT BONE_MESH-1.16589 IS DISTORTING EXCESSIVELY.
   ELEMENT BONE_MESH-1.16590 IS DISTORTING EXCESSIVELY.
   ELEMENT BONE_MESH-1.16593 IS DISTORTING EXCESSIVELY.
   ELEMENT BONE_MESH-1.16598 IS DISTORTING EXCESSIVELY.
   ELEMENT BONE_MESH-1.16602 IS DISTORTING EXCESSIVELY.
   ELEMENT BONE_MESH-1.16606 IS DISTORTING EXCESSIVELY.
   ELEMENT BONE_MESH-1.16607 IS DISTORTING EXCESSIVELY.
   ELEMENT BONE_MESH-1.16613 IS DISTORTING EXCESSIVELY.
   ELEMENT BONE_MESH-1.16615 IS DISTORTING EXCESSIVELY.
   ELEMENT BONE_MESH-1.16616 IS DISTORTING EXCESSIVELY.
   ELEMENT BONE_MESH-1.16618 IS DISTORTING EXCESSIVELY.
   ELEMENT BONE_MESH-1.16619 IS DISTORTING EXCESSIVELY.
   ELEMENT BONE_MESH-1.16620 IS DISTORTING EXCESSIVELY.
   ELEMENT BONE_MESH-1.16621 IS DISTORTING EXCESSIVELY.
   ELEMENT BONE_MESH-1.16622 IS DISTORTING EXCESSIVELY.
   ELEMENT BONE_MESH-1.16623 IS DISTORTING EXCESSIVELY.
   ELEMENT BONE_MESH-1.16624 IS DISTORTING EXCESSIVELY.
   ELEMENT BONE_MESH-1.16625 IS DISTORTING EXCESSIVELY.
   ELEMENT BONE_MESH-1.16626 IS DISTORTING EXCESSIVELY.
   ELEMENT BONE_MESH-1.16629 IS DISTORTING EXCESSIVELY.
   ELEMENT BONE_MESH-1.16631 IS DISTORTING EXCESSIVELY.
   ELEMENT BONE_MESH-1.16632 IS DISTORTING EXCESSIVELY.
   ELEMENT BONE_MESH-1.16633 IS DISTORTING EXCESSIVELY.
   ELEMENT BONE_MESH-1.16637 IS DISTORTING EXCESSIVELY.
   ELEMENT BONE_MESH-1.16638 IS DISTORTING EXCESSIVELY.
   ELEMENT BONE_MESH-1.16644 IS DISTORTING EXCESSIVELY.
   ELEMENT BONE_MESH-1.16648 IS DISTORTING EXCESSIVELY.
   ELEMENT BONE_MESH-1.16655 IS DISTORTING EXCESSIVELY.
   ELEMENT BONE_MESH-1.16660 IS DISTORTING EXCESSIVELY.
   ELEMENT BONE_MESH-1.16661 IS DISTORTING EXCESSIVELY.
   ELEMENT BONE_MESH-1.16671 IS DISTORTING EXCESSIVELY.
   ELEMENT BONE_MESH-1.16672 IS DISTORTING EXCESSIVELY.
   ELEMENT BONE_MESH-1.16673 IS DISTORTING EXCESSIVELY.
   ELEMENT BONE_MESH-1.16678 IS DISTORTING EXCESSIVELY.
   ELEMENT BONE_MESH-1.16679 IS DISTORTING EXCESSIVELY.
   ELEMENT BONE_MESH-1.16682 IS DISTORTING EXCESSIVELY.
   ELEMENT BONE_MESH-1.16683 IS DISTORTING EXCESSIVELY.
   ELEMENT BONE_MESH-1.16686 IS DISTORTING EXCESSIVELY.
   ELEMENT BONE_MESH-1.16692 IS DISTORTING EXCESSIVELY.
   ELEMENT BONE_MESH-1.16694 IS DISTORTING EXCESSIVELY.
   ELEMENT BONE_MESH-1.16696 IS DISTORTING EXCESSIVELY.
   ELEMENT BONE_MESH-1.16699 IS DISTORTING EXCESSIVELY.
   ELEMENT BONE_MESH-1.16701 IS DISTORTING EXCESSIVELY.
   ELEMENT BONE_MESH-1.16703 IS DISTORTING EXCESSIVELY.
   ELEMENT BONE_MESH-1.16705 IS DISTORTING EXCESSIVELY.
   ELEMENT BONE_MESH-1.16707 IS DISTORTING EXCESSIVELY.
   ELEMENT BONE_MESH-1.16712 IS DISTORTING EXCESSIVELY.
   ELEMENT BONE_MESH-1.16713 IS DISTORTING EXCESSIVELY.
   ELEMENT BONE_MESH-1.16714 IS DISTORTING EXCESSIVELY.
   ELEMENT BONE_MESH-1.16715 IS DISTORTING EXCESSIVELY.
   ELEMENT BONE_MESH-1.16716 IS DISTORTING EXCESSIVELY.
   ELEMENT BONE_MESH-1.16717 IS DISTORTING EXCESSIVELY.
   ELEMENT BONE_MESH-1.16720 IS DISTORTING EXCESSIVELY.
   ELEMENT BONE_MESH-1.16721 IS DISTORTING EXCESSIVELY.
   ELEMENT BONE_MESH-1.16722 IS DISTORTING EXCESSIVELY.
   ELEMENT BONE_MESH-1.16723 IS DISTORTING EXCESSIVELY.
   ELEMENT BONE_MESH-1.16724 IS DISTORTING EXCESSIVELY.
   ELEMENT BONE_MESH-1.16725 IS DISTORTING EXCESSIVELY.
   ELEMENT BONE_MESH-1.16726 IS DISTORTING EXCESSIVELY.
   ELEMENT BONE_MESH-1.16727 IS DISTORTING EXCESSIVELY.
   ELEMENT BONE_MESH-1.16737 IS DISTORTING EXCESSIVELY.
   ELEMENT BONE_MESH-1.16739 IS DISTORTING EXCESSIVELY.
   ELEMENT BONE_MESH-1.16740 IS DISTORTING EXCESSIVELY.
   ELEMENT BONE_MESH-1.16741 IS DISTORTING EXCESSIVELY.
   ELEMENT BONE_MESH-1.16742 IS DISTORTING EXCESSIVELY.
   ELEMENT BONE_MESH-1.16743 IS DISTORTING EXCESSIVELY.
   ELEMENT BONE_MESH-1.16744 IS DISTORTING EXCESSIVELY.
   ELEMENT BONE_MESH-1.16745 IS DISTORTING EXCESSIVELY.
   ELEMENT BONE_MESH-1.16746 IS DISTORTING EXCESSIVELY.
   ELEMENT BONE_MESH-1.16747 IS DISTORTING EXCESSIVELY.
   ELEMENT BONE_MESH-1.16751 IS DISTORTING EXCESSIVELY.
   ELEMENT BONE_MESH-1.16752 IS DISTORTING EXCESSIVELY.
   ELEMENT BONE_MESH-1.16753 IS DISTORTING EXCESSIVELY.
   ELEMENT BONE_MESH-1.16758 IS DISTORTING EXCESSIVELY.
   ELEMENT BONE_MESH-1.16759 IS DISTORTING EXCESSIVELY.
   ELEMENT BONE_MESH-1.16762 IS DISTORTING EXCESSIVELY.
   ELEMENT BONE_MESH-1.16763 IS DISTORTING EXCESSIVELY.
   ELEMENT BONE_MESH-1.16764 IS DISTORTING EXCESSIVELY.
   ELEMENT BONE_MESH-1.16767 IS DISTORTING EXCESSIVELY.
   ELEMENT BONE_MESH-1.16768 IS DISTORTING EXCESSIVELY.
   ELEMENT BONE_MESH-1.16775 IS DISTORTING EXCESSIVELY.
   ELEMENT BONE_MESH-1.16776 IS DISTORTING EXCESSIVELY.
   ELEMENT BONE_MESH-1.16777 IS DISTORTING EXCESSIVELY.
   ELEMENT BONE_MESH-1.16778 IS DISTORTING EXCESSIVELY.
   ELEMENT BONE_MESH-1.16779 IS DISTORTING EXCESSIVELY.
   ELEMENT BONE_MESH-1.16780 IS DISTORTING EXCESSIVELY.
   ELEMENT BONE_MESH-1.16783 IS DISTORTING EXCESSIVELY.
   ELEMENT BONE_MESH-1.16785 IS DISTORTING EXCESSIVELY.
   ELEMENT BONE_MESH-1.16788 IS DISTORTING EXCESSIVELY.
   ELEMENT BONE_MESH-1.16789 IS DISTORTING EXCESSIVELY.
   ELEMENT BONE_MESH-1.16790 IS DISTORTING EXCESSIVELY.
   ELEMENT BONE_MESH-1.16793 IS DISTORTING EXCESSIVELY.
   ELEMENT BONE_MESH-1.16794 IS DISTORTING EXCESSIVELY.
   ELEMENT BONE_MESH-1.16795 IS DISTORTING EXCESSIVELY.
   ELEMENT BONE_MESH-1.16799 IS DISTORTING EXCESSIVELY.
   ELEMENT BONE_MESH-1.16800 IS DISTORTING EXCESSIVELY.
   ELEMENT BONE_MESH-1.16807 IS DISTORTING EXCESSIVELY.
   ELEMENT BONE_MESH-1.16812 IS DISTORTING EXCESSIVELY.
   ELEMENT BONE_MESH-1.16813 IS DISTORTING EXCESSIVELY.
   ELEMENT BONE_MESH-1.16818 IS DISTORTING EXCESSIVELY.
   ELEMENT BONE_MESH-1.16819 IS DISTORTING EXCESSIVELY.
   ELEMENT BONE_MESH-1.16820 IS DISTORTING EXCESSIVELY.
   ELEMENT BONE_MESH-1.16821 IS DISTORTING EXCESSIVELY.
   ELEMENT BONE_MESH-1.16823 IS DISTORTING EXCESSIVELY.
   ELEMENT BONE_MESH-1.16826 IS DISTORTING EXCESSIVELY.
   ELEMENT BONE_MESH-1.16827 IS DISTORTING EXCESSIVELY.
   ELEMENT BONE_MESH-1.16829 IS DISTORTING EXCESSIVELY.
   ELEMENT BONE_MESH-1.16830 IS DISTORTING EXCESSIVELY.
   ELEMENT BONE_MESH-1.16831 IS DISTORTING EXCESSIVELY.
   ELEMENT BONE_MESH-1.16833 IS DISTORTING EXCESSIVELY.
   ELEMENT BONE_MESH-1.16834 IS DISTORTING EXCESSIVELY.
   ELEMENT BONE_MESH-1.16835 IS DISTORTING EXCESSIVELY.
   ELEMENT BONE_MESH-1.16836 IS DISTORTING EXCESSIVELY.
   ELEMENT BONE_MESH-1.16839 IS DISTORTING EXCESSIVELY.
   ELEMENT BONE_MESH-1.16840 IS DISTORTING EXCESSIVELY.
   ELEMENT BONE_MESH-1.16841 IS DISTORTING EXCESSIVELY.
   ELEMENT BONE_MESH-1.16842 IS DISTORTING EXCESSIVELY.
   ELEMENT BONE_MESH-1.16843 IS DISTORTING EXCESSIVELY.
   ELEMENT BONE_MESH-1.16844 IS DISTORTING EXCESSIVELY.
   ELEMENT BONE_MESH-1.16845 IS DISTORTING EXCESSIVELY.
   ELEMENT BONE_MESH-1.16848 IS DISTORTING EXCESSIVELY.
   ELEMENT BONE_MESH-1.16850 IS DISTORTING EXCESSIVELY.
   ELEMENT BONE_MESH-1.16854 IS DISTORTING EXCESSIVELY.
   ELEMENT BONE_MESH-1.16855 IS DISTORTING EXCESSIVELY.
   ELEMENT BONE_MESH-1.16856 IS DISTORTING EXCESSIVELY.
   ELEMENT BONE_MESH-1.16857 IS DISTORTING EXCESSIVELY.
   ELEMENT BONE_MESH-1.16859 IS DISTORTING EXCESSIVELY.
   ELEMENT BONE_MESH-1.16860 IS DISTORTING EXCESSIVELY.
   ELEMENT BONE_MESH-1.16861 IS DISTORTING EXCESSIVELY.
   ELEMENT BONE_MESH-1.16863 IS DISTORTING EXCESSIVELY.
   ELEMENT BONE_MESH-1.16864 IS DISTORTING EXCESSIVELY.
   ELEMENT BONE_MESH-1.16865 IS DISTORTING EXCESSIVELY.
   ELEMENT BONE_MESH-1.16866 IS DISTORTING EXCESSIVELY.
   ELEMENT BONE_MESH-1.16868 IS DISTORTING EXCESSIVELY.
   ELEMENT BONE_MESH-1.16869 IS DISTORTING EXCESSIVELY.
   ELEMENT BONE_MESH-1.16872 IS DISTORTING EXCESSIVELY.
   ELEMENT BONE_MESH-1.16874 IS DISTORTING EXCESSIVELY.
   ELEMENT BONE_MESH-1.16878 IS DISTORTING EXCESSIVELY.
   ELEMENT BONE_MESH-1.16879 IS DISTORTING EXCESSIVELY.
   ELEMENT BONE_MESH-1.16880 IS DISTORTING EXCESSIVELY.
   ELEMENT BONE_MESH-1.16881 IS DISTORTING EXCESSIVELY.
   ELEMENT BONE_MESH-1.16882 IS DISTORTING EXCESSIVELY.
   ELEMENT BONE_MESH-1.16883 IS DISTORTING EXCESSIVELY.
   ELEMENT BONE_MESH-1.16884 IS DISTORTING EXCESSIVELY.
   ELEMENT BONE_MESH-1.16885 IS DISTORTING EXCESSIVELY.
   ELEMENT BONE_MESH-1.16889 IS DISTORTING EXCESSIVELY.
   ELEMENT BONE_MESH-1.16890 IS DISTORTING EXCESSIVELY.
   ELEMENT BONE_MESH-1.16898 IS DISTORTING EXCESSIVELY.
   ELEMENT BONE_MESH-1.16900 IS DISTORTING EXCESSIVELY.
   ELEMENT BONE_MESH-1.16901 IS DISTORTING EXCESSIVELY.
   ELEMENT BONE_MESH-1.16903 IS DISTORTING EXCESSIVELY.
   ELEMENT BONE_MESH-1.16905 IS DISTORTING EXCESSIVELY.
   ELEMENT BONE_MESH-1.16910 IS DISTORTING EXCESSIVELY.
   ELEMENT BONE_MESH-1.16911 IS DISTORTING EXCESSIVELY.
   ELEMENT BONE_MESH-1.16913 IS DISTORTING EXCESSIVELY.
   ELEMENT BONE_MESH-1.16914 IS DISTORTING EXCESSIVELY.
   ELEMENT BONE_MESH-1.16916 IS DISTORTING EXCESSIVELY.
   ELEMENT BONE_MESH-1.16918 IS DISTORTING EXCESSIVELY.
   ELEMENT BONE_MESH-1.16921 IS DISTORTING EXCESSIVELY.
   ELEMENT BONE_MESH-1.16922 IS DISTORTING EXCESSIVELY.
   ELEMENT BONE_MESH-1.16923 IS DISTORTING EXCESSIVELY.
   ELEMENT BONE_MESH-1.16924 IS DISTORTING EXCESSIVELY.
   ELEMENT BONE_MESH-1.16925 IS DISTORTING EXCESSIVELY.
   ELEMENT BONE_MESH-1.16928 IS DISTORTING EXCESSIVELY.
   ELEMENT BONE_MESH-1.16929 IS DISTORTING EXCESSIVELY.
   ELEMENT BONE_MESH-1.16930 IS DISTORTING EXCESSIVELY.
   ELEMENT BONE_MESH-1.16931 IS DISTORTING EXCESSIVELY.
   ELEMENT BONE_MESH-1.16932 IS DISTORTING EXCESSIVELY.
   ELEMENT BONE_MESH-1.16944 IS DISTORTING EXCESSIVELY.
   ELEMENT BONE_MESH-1.16953 IS DISTORTING EXCESSIVELY.
   ELEMENT BONE_MESH-1.16954 IS DISTORTING EXCESSIVELY.
   ELEMENT BONE_MESH-1.16956 IS DISTORTING EXCESSIVELY.
   ELEMENT BONE_MESH-1.16962 IS DISTORTING EXCESSIVELY.
   ELEMENT BONE_MESH-1.16964 IS DISTORTING EXCESSIVELY.
   ELEMENT BONE_MESH-1.16967 IS DISTORTING EXCESSIVELY.
   ELEMENT BONE_MESH-1.16968 IS DISTORTING EXCESSIVELY.
   ELEMENT BONE_MESH-1.16970 IS DISTORTING EXCESSIVELY.
   ELEMENT BONE_MESH-1.16972 IS DISTORTING EXCESSIVELY.
   ELEMENT BONE_MESH-1.16974 IS DISTORTING EXCESSIVELY.
   ELEMENT BONE_MESH-1.16976 IS DISTORTING EXCESSIVELY.
   ELEMENT BONE_MESH-1.16977 IS DISTORTING EXCESSIVELY.
   ELEMENT BONE_MESH-1.16978 IS DISTORTING EXCESSIVELY.
   ELEMENT BONE_MESH-1.16981 IS DISTORTING EXCESSIVELY.
   ELEMENT BONE_MESH-1.16982 IS DISTORTING EXCESSIVELY.
   ELEMENT BONE_MESH-1.16984 IS DISTORTING EXCESSIVELY.
   ELEMENT BONE_MESH-1.16986 IS DISTORTING EXCESSIVELY.
   ELEMENT BONE_MESH-1.16987 IS DISTORTING EXCESSIVELY.
   ELEMENT BONE_MESH-1.16988 IS DISTORTING EXCESSIVELY.
   ELEMENT BONE_MESH-1.16989 IS DISTORTING EXCESSIVELY.
   ELEMENT BONE_MESH-1.16993 IS DISTORTING EXCESSIVELY.
   ELEMENT BONE_MESH-1.16998 IS DISTORTING EXCESSIVELY.
   ELEMENT BONE_MESH-1.16999 IS DISTORTING EXCESSIVELY.
   ELEMENT BONE_MESH-1.17003 IS DISTORTING EXCESSIVELY.
   ELEMENT BONE_MESH-1.17007 IS DISTORTING EXCESSIVELY.
   ELEMENT BONE_MESH-1.17012 IS DISTORTING EXCESSIVELY.
   ELEMENT BONE_MESH-1.17014 IS DISTORTING EXCESSIVELY.
   ELEMENT BONE_MESH-1.17018 IS DISTORTING EXCESSIVELY.
   ELEMENT BONE_MESH-1.17021 IS DISTORTING EXCESSIVELY.
   ELEMENT BONE_MESH-1.17030 IS DISTORTING EXCESSIVELY.
   ELEMENT BONE_MESH-1.17031 IS DISTORTING EXCESSIVELY.
   ELEMENT BONE_MESH-1.17038 IS DISTORTING EXCESSIVELY.
   ELEMENT BONE_MESH-1.17044 IS DISTORTING EXCESSIVELY.
   ELEMENT BONE_MESH-1.17045 IS DISTORTING EXCESSIVELY.
   ELEMENT BONE_MESH-1.17048 IS DISTORTING EXCESSIVELY.
   ELEMENT BONE_MESH-1.17049 IS DISTORTING EXCESSIVELY.
   ELEMENT BONE_MESH-1.17050 IS DISTORTING EXCESSIVELY.
   ELEMENT BONE_MESH-1.17052 IS DISTORTING EXCESSIVELY.
   ELEMENT BONE_MESH-1.17053 IS DISTORTING EXCESSIVELY.
   ELEMENT BONE_MESH-1.17054 IS DISTORTING EXCESSIVELY.
   ELEMENT BONE_MESH-1.17057 IS DISTORTING EXCESSIVELY.
[...]

               CONVERGENCE CHECKS FOR EQUILIBRIUM ITERATION     1


 AVERAGE FORCE                      4.076E-04   TIME AVG. FORCE       2.304E-04
 LARGEST RESIDUAL FORCE             1.287E-05   AT NODE      21902   DOF  2
   INSTANCE: BONE_MESH-1                                                                     
 LARGEST INCREMENT OF DISP.         0.175       AT NODE       6758   DOF  2
   INSTANCE: BONE_MESH-1                                                                     
 LARGEST CORRECTION TO DISP.        0.175       AT NODE       6758   DOF  2
   INSTANCE: BONE_MESH-1                                                                     
          FORCE     EQUILIBRIUM NOT ACHIEVED WITHIN TOLERANCE.

  NUMBER OF EQUATIONS =    78771     NUMBER OF FLOATING PT. OPERATIONS =  1.43E+11

     CHECK POINT   START OF SOLVER    

     CHECK POINT  END OF SOLVER       

       ELAPSED USER TIME (SEC)      =   11.800    
       ELAPSED SYSTEM TIME (SEC)    =  0.10000    
       ELAPSED TOTAL CPU TIME (SEC) =   11.900    
       ELAPSED WALLCLOCK TIME (SEC) =         12
 

 ***WARNING: THE SYSTEM MATRIX HAS 713 NEGATIVE EIGENVALUES.
             EXPLANATIONS ARE SUGGESTED AFTER THE FIRST OCCURRENCE OF THIS MESSAGE.

               CONVERGENCE CHECKS FOR EQUILIBRIUM ITERATION     2


 AVERAGE FORCE                      4.076E-04   TIME AVG. FORCE       2.304E-04
 LARGEST RESIDUAL FORCE             3.300E-06   AT NODE      20510   DOF  2
   INSTANCE: BONE_MESH-1                                                                     
 LARGEST INCREMENT OF DISP.        -0.279       AT NODE       2155   DOF  2
   INSTANCE: BONE_MESH-1                                                                     
 LARGEST CORRECTION TO DISP.       -0.124       AT NODE       2167   DOF  2
   INSTANCE: BONE_MESH-1                                                                     
          FORCE     EQUILIBRIUM NOT ACHIEVED WITHIN TOLERANCE.

  NUMBER OF EQUATIONS =    78771     NUMBER OF FLOATING PT. OPERATIONS =  1.43E+11

     CHECK POINT   START OF SOLVER    

     CHECK POINT  END OF SOLVER       

       ELAPSED USER TIME (SEC)      =   11.200    
       ELAPSED SYSTEM TIME (SEC)    =   0.0000    
       ELAPSED TOTAL CPU TIME (SEC) =   11.200    
       ELAPSED WALLCLOCK TIME (SEC) =         11
 

 ***WARNING: THE SYSTEM MATRIX HAS 717 NEGATIVE EIGENVALUES.
             EXPLANATIONS ARE SUGGESTED AFTER THE FIRST OCCURRENCE OF THIS MESSAGE.
   ELEMENT BONE_MESH-1.14538 IS DISTORTING EXCESSIVELY.
   ELEMENT BONE_MESH-1.14547 IS DISTORTING EXCESSIVELY.
   ELEMENT BONE_MESH-1.14548 IS DISTORTING EXCESSIVELY.
   ELEMENT BONE_MESH-1.14617 IS DISTORTING EXCESSIVELY.
   ELEMENT BONE_MESH-1.14668 IS DISTORTING EXCESSIVELY.
   ELEMENT BONE_MESH-1.14670 IS DISTORTING EXCESSIVELY.
   ELEMENT BONE_MESH-1.14671 IS DISTORTING EXCESSIVELY.
   ELEMENT BONE_MESH-1.14673 IS DISTORTING EXCESSIVELY.
   ELEMENT BONE_MESH-1.14697 IS DISTORTING EXCESSIVELY.
   ELEMENT BONE_MESH-1.14752 IS DISTORTING EXCESSIVELY.
   ELEMENT BONE_MESH-1.14755 IS DISTORTING EXCESSIVELY.
   ELEMENT BONE_MESH-1.14776 IS DISTORTING EXCESSIVELY.
   ELEMENT BONE_MESH-1.14808 IS DISTORTING EXCESSIVELY.
   ELEMENT BONE_MESH-1.14809 IS DISTORTING EXCESSIVELY.
   ELEMENT BONE_MESH-1.14812 IS DISTORTING EXCESSIVELY.
   ELEMENT BONE_MESH-1.14988 IS DISTORTING EXCESSIVELY.
   ELEMENT BONE_MESH-1.15002 IS DISTORTING EXCESSIVELY.
   ELEMENT BONE_MESH-1.15058 IS DISTORTING EXCESSIVELY.
   ELEMENT BONE_MESH-1.15059 IS DISTORTING EXCESSIVELY.
   ELEMENT BONE_MESH-1.15076 IS DISTORTING EXCESSIVELY.
   ELEMENT BONE_MESH-1.15077 IS DISTORTING EXCESSIVELY.
   ELEMENT BONE_MESH-1.15096 IS DISTORTING EXCESSIVELY.
   ELEMENT BONE_MESH-1.15097 IS DISTORTING EXCESSIVELY.
   ELEMENT BONE_MESH-1.15101 IS DISTORTING EXCESSIVELY.
   ELEMENT BONE_MESH-1.15106 IS DISTORTING EXCESSIVELY.
   ELEMENT BONE_MESH-1.15107 IS DISTORTING EXCESSIVELY.
   ELEMENT BONE_MESH-1.15136 IS DISTORTING EXCESSIVELY.
   ELEMENT BONE_MESH-1.15152 IS DISTORTING EXCESSIVELY.
   ELEMENT BONE_MESH-1.15427 IS DISTORTING EXCESSIVELY.
   ELEMENT BONE_MESH-1.15436 IS DISTORTING EXCESSIVELY.
   ELEMENT BONE_MESH-1.15437 IS DISTORTING EXCESSIVELY.
   ELEMENT BONE_MESH-1.15506 IS DISTORTING EXCESSIVELY.
   ELEMENT BONE_MESH-1.15557 IS DISTORTING EXCESSIVELY.
   ELEMENT BONE_MESH-1.15559 IS DISTORTING EXCESSIVELY.
   ELEMENT BONE_MESH-1.15560 IS DISTORTING EXCESSIVELY.
   ELEMENT BONE_MESH-1.15562 IS DISTORTING EXCESSIVELY.
   ELEMENT BONE_MESH-1.15586 IS DISTORTING EXCESSIVELY.
   ELEMENT BONE_MESH-1.15641 IS DISTORTING EXCESSIVELY.
   ELEMENT BONE_MESH-1.15644 IS DISTORTING EXCESSIVELY.
   ELEMENT BONE_MESH-1.15665 IS DISTORTING EXCESSIVELY.
   ELEMENT BONE_MESH-1.15697 IS DISTORTING EXCESSIVELY.
   ELEMENT BONE_MESH-1.15698 IS DISTORTING EXCESSIVELY.
   ELEMENT BONE_MESH-1.15701 IS DISTORTING EXCESSIVELY.
   ELEMENT BONE_MESH-1.15877 IS DISTORTING EXCESSIVELY.
   ELEMENT BONE_MESH-1.15891 IS DISTORTING EXCESSIVELY.
   ELEMENT BONE_MESH-1.15947 IS DISTORTING EXCESSIVELY.
   ELEMENT BONE_MESH-1.15948 IS DISTORTING EXCESSIVELY.
   ELEMENT BONE_MESH-1.15965 IS DISTORTING EXCESSIVELY.
   ELEMENT BONE_MESH-1.15966 IS DISTORTING EXCESSIVELY.
   ELEMENT BONE_MESH-1.15985 IS DISTORTING EXCESSIVELY.
   ELEMENT BONE_MESH-1.15986 IS DISTORTING EXCESSIVELY.
   ELEMENT BONE_MESH-1.15990 IS DISTORTING EXCESSIVELY.
   ELEMENT BONE_MESH-1.15995 IS DISTORTING EXCESSIVELY.
   ELEMENT BONE_MESH-1.15996 IS DISTORTING EXCESSIVELY.
   ELEMENT BONE_MESH-1.16025 IS DISTORTING EXCESSIVELY.
   ELEMENT BONE_MESH-1.16041 IS DISTORTING EXCESSIVELY.
   ELEMENT BONE_MESH-1.16316 IS DISTORTING EXCESSIVELY.
   ELEMENT BONE_MESH-1.16325 IS DISTORTING EXCESSIVELY.
   ELEMENT BONE_MESH-1.16326 IS DISTORTING EXCESSIVELY.
   ELEMENT BONE_MESH-1.16395 IS DISTORTING EXCESSIVELY.
   ELEMENT BONE_MESH-1.16446 IS DISTORTING EXCESSIVELY.
   ELEMENT BONE_MESH-1.16448 IS DISTORTING EXCESSIVELY.
   ELEMENT BONE_MESH-1.16449 IS DISTORTING EXCESSIVELY.
   ELEMENT BONE_MESH-1.16451 IS DISTORTING EXCESSIVELY.
   ELEMENT BONE_MESH-1.16475 IS DISTORTING EXCESSIVELY.
   ELEMENT BONE_MESH-1.16530 IS DISTORTING EXCESSIVELY.
   ELEMENT BONE_MESH-1.16533 IS DISTORTING EXCESSIVELY.
   ELEMENT BONE_MESH-1.16554 IS DISTORTING EXCESSIVELY.
   ELEMENT BONE_MESH-1.16586 IS DISTORTING EXCESSIVELY.
   ELEMENT BONE_MESH-1.16587 IS DISTORTING EXCESSIVELY.
   ELEMENT BONE_MESH-1.16590 IS DISTORTING EXCESSIVELY.
   ELEMENT BONE_MESH-1.16766 IS DISTORTING EXCESSIVELY.
   ELEMENT BONE_MESH-1.16780 IS DISTORTING EXCESSIVELY.
   ELEMENT BONE_MESH-1.16836 IS DISTORTING EXCESSIVELY.
   ELEMENT BONE_MESH-1.16837 IS DISTORTING EXCESSIVELY.
   ELEMENT BONE_MESH-1.16854 IS DISTORTING EXCESSIVELY.
   ELEMENT BONE_MESH-1.16855 IS DISTORTING EXCESSIVELY.
   ELEMENT BONE_MESH-1.16874 IS DISTORTING EXCESSIVELY.
   ELEMENT BONE_MESH-1.16875 IS DISTORTING EXCESSIVELY.
   ELEMENT BONE_MESH-1.16879 IS DISTORTING EXCESSIVELY.
   ELEMENT BONE_MESH-1.16884 IS DISTORTING EXCESSIVELY.
   ELEMENT BONE_MESH-1.16885 IS DISTORTING EXCESSIVELY.
   ELEMENT BONE_MESH-1.16914 IS DISTORTING EXCESSIVELY.
   ELEMENT BONE_MESH-1.16930 IS DISTORTING EXCESSIVELY.
   ELEMENT BONE_MESH-1.17205 IS DISTORTING EXCESSIVELY.
   ELEMENT BONE_MESH-1.17214 IS DISTORTING EXCESSIVELY.
   ELEMENT BONE_MESH-1.17215 IS DISTORTING EXCESSIVELY.
   ELEMENT BONE_MESH-1.17284 IS DISTORTING EXCESSIVELY.
   ELEMENT BONE_MESH-1.17335 IS DISTORTING EXCESSIVELY.
   ELEMENT BONE_MESH-1.17337 IS DISTORTING EXCESSIVELY.
   ELEMENT BONE_MESH-1.17338 IS DISTORTING EXCESSIVELY.
   ELEMENT BONE_MESH-1.17340 IS DISTORTING EXCESSIVELY.
   ELEMENT BONE_MESH-1.17364 IS DISTORTING EXCESSIVELY.
   ELEMENT BONE_MESH-1.17419 IS DISTORTING EXCESSIVELY.
   ELEMENT BONE_MESH-1.17422 IS DISTORTING EXCESSIVELY.
   ELEMENT BONE_MESH-1.17443 IS DISTORTING EXCESSIVELY.
   ELEMENT BONE_MESH-1.17475 IS DISTORTING EXCESSIVELY.
   ELEMENT BONE_MESH-1.17476 IS DISTORTING EXCESSIVELY.
   ELEMENT BONE_MESH-1.17479 IS DISTORTING EXCESSIVELY.
   ELEMENT BONE_MESH-1.17655 IS DISTORTING EXCESSIVELY.
   ELEMENT BONE_MESH-1.17669 IS DISTORTING EXCESSIVELY.
   ELEMENT BONE_MESH-1.17725 IS DISTORTING EXCESSIVELY.
   ELEMENT BONE_MESH-1.17726 IS DISTORTING EXCESSIVELY.
   ELEMENT BONE_MESH-1.17743 IS DISTORTING EXCESSIVELY.
   ELEMENT BONE_MESH-1.17744 IS DISTORTING EXCESSIVELY.
   ELEMENT BONE_MESH-1.17763 IS DISTORTING EXCESSIVELY.
   ELEMENT BONE_MESH-1.17764 IS DISTORTING EXCESSIVELY.
   ELEMENT BONE_MESH-1.17768 IS DISTORTING EXCESSIVELY.
   ELEMENT BONE_MESH-1.17773 IS DISTORTING EXCESSIVELY.
   ELEMENT BONE_MESH-1.17774 IS DISTORTING EXCESSIVELY.
   ELEMENT BONE_MESH-1.17803 IS DISTORTING EXCESSIVELY.
   ELEMENT BONE_MESH-1.17819 IS DISTORTING EXCESSIVELY.
   ELEMENT BONE_MESH-1.18094 IS DISTORTING EXCESSIVELY.
   ELEMENT BONE_MESH-1.18103 IS DISTORTING EXCESSIVELY.
   ELEMENT BONE_MESH-1.18104 IS DISTORTING EXCESSIVELY.
   ELEMENT BONE_MESH-1.18173 IS DISTORTING EXCESSIVELY.
   ELEMENT BONE_MESH-1.18224 IS DISTORTING EXCESSIVELY.
   ELEMENT BONE_MESH-1.18226 IS DISTORTING EXCESSIVELY.
   ELEMENT BONE_MESH-1.18227 IS DISTORTING EXCESSIVELY.
   ELEMENT BONE_MESH-1.18229 IS DISTORTING EXCESSIVELY.
   ELEMENT BONE_MESH-1.18253 IS DISTORTING EXCESSIVELY.
   ELEMENT BONE_MESH-1.18308 IS DISTORTING EXCESSIVELY.
   ELEMENT BONE_MESH-1.18311 IS DISTORTING EXCESSIVELY.
   ELEMENT BONE_MESH-1.18332 IS DISTORTING EXCESSIVELY.
   ELEMENT BONE_MESH-1.18364 IS DISTORTING EXCESSIVELY.
   ELEMENT BONE_MESH-1.18365 IS DISTORTING EXCESSIVELY.
   ELEMENT BONE_MESH-1.18368 IS DISTORTING EXCESSIVELY.
   ELEMENT BONE_MESH-1.18544 IS DISTORTING EXCESSIVELY.
   ELEMENT BONE_MESH-1.18558 IS DISTORTING EXCESSIVELY.
   ELEMENT BONE_MESH-1.18614 IS DISTORTING EXCESSIVELY.
   ELEMENT BONE_MESH-1.18615 IS DISTORTING EXCESSIVELY.
   ELEMENT BONE_MESH-1.18632 IS DISTORTING EXCESSIVELY.
   ELEMENT BONE_MESH-1.18633 IS DISTORTING EXCESSIVELY.
   ELEMENT BONE_MESH-1.18652 IS DISTORTING EXCESSIVELY.
   ELEMENT BONE_MESH-1.18653 IS DISTORTING EXCESSIVELY.
   ELEMENT BONE_MESH-1.18657 IS DISTORTING EXCESSIVELY.
   ELEMENT BONE_MESH-1.18662 IS DISTORTING EXCESSIVELY.
   ELEMENT BONE_MESH-1.18663 IS DISTORTING EXCESSIVELY.
   ELEMENT BONE_MESH-1.18692 IS DISTORTING EXCESSIVELY.
   ELEMENT BONE_MESH-1.18708 IS DISTORTING EXCESSIVELY.
   ELEMENT BONE_MESH-1.18983 IS DISTORTING EXCESSIVELY.
   ELEMENT BONE_MESH-1.18992 IS DISTORTING EXCESSIVELY.
   ELEMENT BONE_MESH-1.18993 IS DISTORTING EXCESSIVELY.
   ELEMENT BONE_MESH-1.19062 IS DISTORTING EXCESSIVELY.
   ELEMENT BONE_MESH-1.19113 IS DISTORTING EXCESSIVELY.
   ELEMENT BONE_MESH-1.19115 IS DISTORTING EXCESSIVELY.
   ELEMENT BONE_MESH-1.19116 IS DISTORTING EXCESSIVELY.
   ELEMENT BONE_MESH-1.19118 IS DISTORTING EXCESSIVELY.
   ELEMENT BONE_MESH-1.19142 IS DISTORTING EXCESSIVELY.
   ELEMENT BONE_MESH-1.19197 IS DISTORTING EXCESSIVELY.
   ELEMENT BONE_MESH-1.19200 IS DISTORTING EXCESSIVELY.
   ELEMENT BONE_MESH-1.19221 IS DISTORTING EXCESSIVELY.
   ELEMENT BONE_MESH-1.19253 IS DISTORTING EXCESSIVELY.
   ELEMENT BONE_MESH-1.19254 IS DISTORTING EXCESSIVELY.
   ELEMENT BONE_MESH-1.19257 IS DISTORTING EXCESSIVELY.
   ELEMENT BONE_MESH-1.19433 IS DISTORTING EXCESSIVELY.
   ELEMENT BONE_MESH-1.19447 IS DISTORTING EXCESSIVELY.
   ELEMENT BONE_MESH-1.19503 IS DISTORTING EXCESSIVELY.
   ELEMENT BONE_MESH-1.19504 IS DISTORTING EXCESSIVELY.
   ELEMENT BONE_MESH-1.19521 IS DISTORTING EXCESSIVELY.
   ELEMENT BONE_MESH-1.19522 IS DISTORTING EXCESSIVELY.
   ELEMENT BONE_MESH-1.19541 IS DISTORTING EXCESSIVELY.
   ELEMENT BONE_MESH-1.19542 IS DISTORTING EXCESSIVELY.
   ELEMENT BONE_MESH-1.19546 IS DISTORTING EXCESSIVELY.
   ELEMENT BONE_MESH-1.19551 IS DISTORTING EXCESSIVELY.
   ELEMENT BONE_MESH-1.19552 IS DISTORTING EXCESSIVELY.
   ELEMENT BONE_MESH-1.19581 IS DISTORTING EXCESSIVELY.
   ELEMENT BONE_MESH-1.19597 IS DISTORTING EXCESSIVELY.
   ELEMENT BONE_MESH-1.19872 IS DISTORTING EXCESSIVELY.
   ELEMENT BONE_MESH-1.19881 IS DISTORTING EXCESSIVELY.
   ELEMENT BONE_MESH-1.19882 IS DISTORTING EXCESSIVELY.
   ELEMENT BONE_MESH-1.19951 IS DISTORTING EXCESSIVELY.
   ELEMENT BONE_MESH-1.20002 IS DISTORTING EXCESSIVELY.
   ELEMENT BONE_MESH-1.20004 IS DISTORTING EXCESSIVELY.
   ELEMENT BONE_MESH-1.20005 IS DISTORTING EXCESSIVELY.
   ELEMENT BONE_MESH-1.20007 IS DISTORTING EXCESSIVELY.
   ELEMENT BONE_MESH-1.20031 IS DISTORTING EXCESSIVELY.
   ELEMENT BONE_MESH-1.20086 IS DISTORTING EXCESSIVELY.
   ELEMENT BONE_MESH-1.20089 IS DISTORTING EXCESSIVELY.
   ELEMENT BONE_MESH-1.20110 IS DISTORTING EXCESSIVELY.
   ELEMENT BONE_MESH-1.20142 IS DISTORTING EXCESSIVELY.
   ELEMENT BONE_MESH-1.20143 IS DISTORTING EXCESSIVELY.
   ELEMENT BONE_MESH-1.20146 IS DISTORTING EXCESSIVELY.
   ELEMENT BONE_MESH-1.20322 IS DISTORTING EXCESSIVELY.
   ELEMENT BONE_MESH-1.20336 IS DISTORTING EXCESSIVELY.
   ELEMENT BONE_MESH-1.20392 IS DISTORTING EXCESSIVELY.
   ELEMENT BONE_MESH-1.20393 IS DISTORTING EXCESSIVELY.
   ELEMENT BONE_MESH-1.20410 IS DISTORTING EXCESSIVELY.
   ELEMENT BONE_MESH-1.20411 IS DISTORTING EXCESSIVELY.
   ELEMENT BONE_MESH-1.20430 IS DISTORTING EXCESSIVELY.
   ELEMENT BONE_MESH-1.20431 IS DISTORTING EXCESSIVELY.
   ELEMENT BONE_MESH-1.20435 IS DISTORTING EXCESSIVELY.
   ELEMENT BONE_MESH-1.20440 IS DISTORTING EXCESSIVELY.
   ELEMENT BONE_MESH-1.20441 IS DISTORTING EXCESSIVELY.
   ELEMENT BONE_MESH-1.20470 IS DISTORTING EXCESSIVELY.
   ELEMENT BONE_MESH-1.20486 IS DISTORTING EXCESSIVELY.
   ELEMENT BONE_MESH-1.20761 IS DISTORTING EXCESSIVELY.
   ELEMENT BONE_MESH-1.20770 IS DISTORTING EXCESSIVELY.
   ELEMENT BONE_MESH-1.20771 IS DISTORTING EXCESSIVELY.
   ELEMENT BONE_MESH-1.20840 IS DISTORTING EXCESSIVELY.
   ELEMENT BONE_MESH-1.20891 IS DISTORTING EXCESSIVELY.
   ELEMENT BONE_MESH-1.20893 IS DISTORTING EXCESSIVELY.
   ELEMENT BONE_MESH-1.20894 IS DISTORTING EXCESSIVELY.
   ELEMENT BONE_MESH-1.20896 IS DISTORTING EXCESSIVELY.
   ELEMENT BONE_MESH-1.20920 IS DISTORTING EXCESSIVELY.
   ELEMENT BONE_MESH-1.20975 IS DISTORTING EXCESSIVELY.
   ELEMENT BONE_MESH-1.20978 IS DISTORTING EXCESSIVELY.
   ELEMENT BONE_MESH-1.20999 IS DISTORTING EXCESSIVELY.
   ELEMENT BONE_MESH-1.21031 IS DISTORTING EXCESSIVELY.
   ELEMENT BONE_MESH-1.21032 IS DISTORTING EXCESSIVELY.
   ELEMENT BONE_MESH-1.21035 IS DISTORTING EXCESSIVELY.
   ELEMENT BONE_MESH-1.21211 IS DISTORTING EXCESSIVELY.
   ELEMENT BONE_MESH-1.21225 IS DISTORTING EXCESSIVELY.
   ELEMENT BONE_MESH-1.21281 IS DISTORTING EXCESSIVELY.
   ELEMENT BONE_MESH-1.21282 IS DISTORTING EXCESSIVELY.
   ELEMENT BONE_MESH-1.21299 IS DISTORTING EXCESSIVELY.
   ELEMENT BONE_MESH-1.21300 IS DISTORTING EXCESSIVELY.
   ELEMENT BONE_MESH-1.21319 IS DISTORTING EXCESSIVELY.
   ELEMENT BONE_MESH-1.21320 IS DISTORTING EXCESSIVELY.
   ELEMENT BONE_MESH-1.21324 IS DISTORTING EXCESSIVELY.
   ELEMENT BONE_MESH-1.21329 IS DISTORTING EXCESSIVELY.
   ELEMENT BONE_MESH-1.21330 IS DISTORTING EXCESSIVELY.
   ELEMENT BONE_MESH-1.21359 IS DISTORTING EXCESSIVELY.
   ELEMENT BONE_MESH-1.21375 IS DISTORTING EXCESSIVELY.
   ELEMENT BONE_MESH-1.21650 IS DISTORTING EXCESSIVELY.
   ELEMENT BONE_MESH-1.21659 IS DISTORTING EXCESSIVELY.
   ELEMENT BONE_MESH-1.21660 IS DISTORTING EXCESSIVELY.
   ELEMENT BONE_MESH-1.21729 IS DISTORTING EXCESSIVELY.
   ELEMENT BONE_MESH-1.21780 IS DISTORTING EXCESSIVELY.
   ELEMENT BONE_MESH-1.21782 IS DISTORTING EXCESSIVELY.
   ELEMENT BONE_MESH-1.21783 IS DISTORTING EXCESSIVELY.
   ELEMENT BONE_MESH-1.21785 IS DISTORTING EXCESSIVELY.
   ELEMENT BONE_MESH-1.21809 IS DISTORTING EXCESSIVELY.
   ELEMENT BONE_MESH-1.21864 IS DISTORTING EXCESSIVELY.
   ELEMENT BONE_MESH-1.21867 IS DISTORTING EXCESSIVELY.
   ELEMENT BONE_MESH-1.21888 IS DISTORTING EXCESSIVELY.
   ELEMENT BONE_MESH-1.21920 IS DISTORTING EXCESSIVELY.
   ELEMENT BONE_MESH-1.21921 IS DISTORTING EXCESSIVELY.
   ELEMENT BONE_MESH-1.21924 IS DISTORTING EXCESSIVELY.
   ELEMENT BONE_MESH-1.22100 IS DISTORTING EXCESSIVELY.
   ELEMENT BONE_MESH-1.22114 IS DISTORTING EXCESSIVELY.
   ELEMENT BONE_MESH-1.22170 IS DISTORTING EXCESSIVELY.
   ELEMENT BONE_MESH-1.22171 IS DISTORTING EXCESSIVELY.
   ELEMENT BONE_MESH-1.22188 IS DISTORTING EXCESSIVELY.
   ELEMENT BONE_MESH-1.22189 IS DISTORTING EXCESSIVELY.
   ELEMENT BONE_MESH-1.22208 IS DISTORTING EXCESSIVELY.
   ELEMENT BONE_MESH-1.22209 IS DISTORTING EXCESSIVELY.
   ELEMENT BONE_MESH-1.22213 IS DISTORTING EXCESSIVELY.
   ELEMENT BONE_MESH-1.22218 IS DISTORTING EXCESSIVELY.
   ELEMENT BONE_MESH-1.22219 IS DISTORTING EXCESSIVELY.
   ELEMENT BONE_MESH-1.22248 IS DISTORTING EXCESSIVELY.
   ELEMENT BONE_MESH-1.22264 IS DISTORTING EXCESSIVELY.
   ELEMENT BONE_MESH-1.22539 IS DISTORTING EXCESSIVELY.
   ELEMENT BONE_MESH-1.22548 IS DISTORTING EXCESSIVELY.
   ELEMENT BONE_MESH-1.22549 IS DISTORTING EXCESSIVELY.
   ELEMENT BONE_MESH-1.22618 IS DISTORTING EXCESSIVELY.
   ELEMENT BONE_MESH-1.22669 IS DISTORTING EXCESSIVELY.
   ELEMENT BONE_MESH-1.22671 IS DISTORTING EXCESSIVELY.
   ELEMENT BONE_MESH-1.22672 IS DISTORTING EXCESSIVELY.
   ELEMENT BONE_MESH-1.22674 IS DISTORTING EXCESSIVELY.
   ELEMENT BONE_MESH-1.22698 IS DISTORTING EXCESSIVELY.
   ELEMENT BONE_MESH-1.22753 IS DISTORTING EXCESSIVELY.
   ELEMENT BONE_MESH-1.22756 IS DISTORTING EXCESSIVELY.
   ELEMENT BONE_MESH-1.22777 IS DISTORTING EXCESSIVELY.
   ELEMENT BONE_MESH-1.22809 IS DISTORTING EXCESSIVELY.
   ELEMENT BONE_MESH-1.22810 IS DISTORTING EXCESSIVELY.
   ELEMENT BONE_MESH-1.22813 IS DISTORTING EXCESSIVELY.
   ELEMENT BONE_MESH-1.22989 IS DISTORTING EXCESSIVELY.
   ELEMENT BONE_MESH-1.23003 IS DISTORTING EXCESSIVELY.
   ELEMENT BONE_MESH-1.23059 IS DISTORTING EXCESSIVELY.
   ELEMENT BONE_MESH-1.23060 IS DISTORTING EXCESSIVELY.
   ELEMENT BONE_MESH-1.23077 IS DISTORTING EXCESSIVELY.
   ELEMENT BONE_MESH-1.23078 IS DISTORTING EXCESSIVELY.
   ELEMENT BONE_MESH-1.23097 IS DISTORTING EXCESSIVELY.
   ELEMENT BONE_MESH-1.23098 IS DISTORTING EXCESSIVELY.
   ELEMENT BONE_MESH-1.23102 IS DISTORTING EXCESSIVELY.
   ELEMENT BONE_MESH-1.23107 IS DISTORTING EXCESSIVELY.
   ELEMENT BONE_MESH-1.23108 IS DISTORTING EXCESSIVELY.
   ELEMENT BONE_MESH-1.23137 IS DISTORTING EXCESSIVELY.
   ELEMENT BONE_MESH-1.23153 IS DISTORTING EXCESSIVELY.

 ***WARNING: EXCESSIVE DISTORTION AT A TOTAL OF 280 INTEGRATION POINTS IN SOLID 
             (CONTINUUM) ELEMENTS
 

 ***NOTE: ELEMENTS ARE DISTORTING EXCESSIVELY. CONVERGENCE IS JUDGED UNLIKELY.
 

 ***ERROR: TOO MANY ATTEMPTS MADE FOR THIS INCREMENT



     ANALYSIS SUMMARY:
     TOTAL OF          6  INCREMENTS
                       5  CUTBACKS IN AUTOMATIC INCREMENTATION
                      22  ITERATIONS INCLUDING CONTACT ITERATIONS IF PRESENT
                      22  PASSES THROUGH THE EQUATION SOLVER OF WHICH 
                      22  INVOLVE MATRIX DECOMPOSITION, INCLUDING
                       0  DECOMPOSITION(S) OF THE MASS MATRIX
                       1  REORDERING OF EQUATIONS TO MINIMIZE WAVEFRONT
                       0  ADDITIONAL RESIDUAL EVALUATIONS FOR LINE SEARCHES
                       0  ADDITIONAL OPERATOR EVALUATIONS FOR LINE SEARCHES
                      96  WARNING MESSAGES DURING USER INPUT PROCESSING
                      25  WARNING MESSAGES DURING ANALYSIS
                       0  ANALYSIS WARNINGS ARE NUMERICAL PROBLEM MESSAGES
                      21  ANALYSIS WARNINGS ARE NEGATIVE EIGENVALUE MESSAGES
                       1  ERROR MESSAGES



     JOB TIME SUMMARY
       USER TIME (SEC)      =   288.70    
       SYSTEM TIME (SEC)    =   3.3000    
       TOTAL CPU TIME (SEC) =   292.00    
       WALLCLOCK TIME (SEC) =        294
